  Page 1                                    Mon Apr 14 01:25:52 2025

  ******************************************************************
  *                           E P A N E T                          *
  *                   Hydraulic and Water Quality                  *
  *                   Analysis for Pipe Networks                   *
  *                         Version 2.2                            *
  ******************************************************************
  
  Error 227: invalid head curve for pump B1
  Error 200: one or more errors in input file