  Page 1                                    Sun Apr 13 17:33:49 2025

  ******************************************************************
  *                           E P A N E T                          *
  *                   Hydraulic and Water Quality                  *
  *                   Analysis for Pipe Networks                   *
  *                         Version 2.2                            *
  ******************************************************************
  
  Analysis begun Sun Apr 13 17:33:49 2025

  WARNING: Negative pressures at 0:55:26 hrs.
  WARNING: System unbalanced at 0:55:26 hrs.
  WARNING: Node 5 disconnected at 0:55:26 hrs
  WARNING: Node 6 disconnected at 0:55:26 hrs
  WARNING: Node 7 disconnected at 0:55:26 hrs
  WARNING: Node 8 disconnected at 0:55:26 hrs
  WARNING: Node 10 disconnected at 0:55:26 hrs
  WARNING: Node 11 disconnected at 0:55:26 hrs
  WARNING: Node 12 disconnected at 0:55:26 hrs
  WARNING: Node 14 disconnected at 0:55:26 hrs
  WARNING: Node 15 disconnected at 0:55:26 hrs
  WARNING: Node 18 disconnected at 0:55:26 hrs
  WARNING: 36 additional nodes disconnected at 0:55:26 hrs
  WARNING: System disconnected because of Link 1
   
  WARNING: Negative pressures at 1:00:00 hrs.
  WARNING: System unbalanced at 1:00:00 hrs.
  WARNING: Node 5 disconnected at 1:00:00 hrs
  WARNING: Node 6 disconnected at 1:00:00 hrs
  WARNING: Node 7 disconnected at 1:00:00 hrs
  WARNING: Node 8 disconnected at 1:00:00 hrs
  WARNING: Node 10 disconnected at 1:00:00 hrs
  WARNING: Node 11 disconnected at 1:00:00 hrs
  WARNING: Node 12 disconnected at 1:00:00 hrs
  WARNING: Node 14 disconnected at 1:00:00 hrs
  WARNING: Node 15 disconnected at 1:00:00 hrs
  WARNING: Node 18 disconnected at 1:00:00 hrs
  WARNING: 36 additional nodes disconnected at 1:00:00 hrs
  WARNING: System disconnected because of Link 1
   
  WARNING: Negative pressures at 1:15:00 hrs.
  WARNING: System unbalanced at 1:15:00 hrs.
  WARNING: Node 5 disconnected at 1:15:00 hrs
  WARNING: Node 6 disconnected at 1:15:00 hrs
  WARNING: Node 7 disconnected at 1:15:00 hrs
  WARNING: Node 8 disconnected at 1:15:00 hrs
  WARNING: Node 10 disconnected at 1:15:00 hrs
  WARNING: Node 11 disconnected at 1:15:00 hrs
  WARNING: Node 12 disconnected at 1:15:00 hrs
  WARNING: Node 14 disconnected at 1:15:00 hrs
  WARNING: Node 15 disconnected at 1:15:00 hrs
  WARNING: Node 18 disconnected at 1:15:00 hrs
  WARNING: 36 additional nodes disconnected at 1:15:00 hrs
  WARNING: System disconnected because of Link 1
   
  WARNING: Negative pressures at 1:30:00 hrs.
  WARNING: System unbalanced at 1:30:00 hrs.
  WARNING: Node 5 disconnected at 1:30:00 hrs
  WARNING: Node 6 disconnected at 1:30:00 hrs
  WARNING: Node 7 disconnected at 1:30:00 hrs
  WARNING: Node 8 disconnected at 1:30:00 hrs
  WARNING: Node 10 disconnected at 1:30:00 hrs
  WARNING: Node 11 disconnected at 1:30:00 hrs
  WARNING: Node 12 disconnected at 1:30:00 hrs
  WARNING: Node 14 disconnected at 1:30:00 hrs
  WARNING: Node 15 disconnected at 1:30:00 hrs
  WARNING: Node 18 disconnected at 1:30:00 hrs
  WARNING: 36 additional nodes disconnected at 1:30:00 hrs
  WARNING: System disconnected because of Link 1
   
  WARNING: Negative pressures at 1:45:00 hrs.
  WARNING: System unbalanced at 1:45:00 hrs.
  WARNING: Node 5 disconnected at 1:45:00 hrs
  WARNING: Node 6 disconnected at 1:45:00 hrs
  WARNING: Node 7 disconnected at 1:45:00 hrs
  WARNING: Node 8 disconnected at 1:45:00 hrs
  WARNING: Node 10 disconnected at 1:45:00 hrs
  WARNING: Node 11 disconnected at 1:45:00 hrs
  WARNING: Node 12 disconnected at 1:45:00 hrs
  WARNING: Node 14 disconnected at 1:45:00 hrs
  WARNING: Node 15 disconnected at 1:45:00 hrs
  WARNING: Node 18 disconnected at 1:45:00 hrs
  WARNING: 36 additional nodes disconnected at 1:45:00 hrs
  WARNING: System disconnected because of Link 1
   
  WARNING: Negative pressures at 2:00:00 hrs.
  WARNING: System unbalanced at 2:00:00 hrs.
  WARNING: Node 5 disconnected at 2:00:00 hrs
  WARNING: Node 6 disconnected at 2:00:00 hrs
  WARNING: Node 7 disconnected at 2:00:00 hrs
  WARNING: Node 8 disconnected at 2:00:00 hrs
  WARNING: Node 10 disconnected at 2:00:00 hrs
  WARNING: Node 11 disconnected at 2:00:00 hrs
  WARNING: Node 12 disconnected at 2:00:00 hrs
  WARNING: Node 14 disconnected at 2:00:00 hrs
  WARNING: Node 15 disconnected at 2:00:00 hrs
  WARNING: Node 18 disconnected at 2:00:00 hrs
  WARNING: 36 additional nodes disconnected at 2:00:00 hrs
  WARNING: System disconnected because of Link 1
   
  WARNING: Negative pressures at 2:15:00 hrs.
  WARNING: System unbalanced at 2:15:00 hrs.
  WARNING: Node 5 disconnected at 2:15:00 hrs
  WARNING: Node 6 disconnected at 2:15:00 hrs
  WARNING: Node 7 disconnected at 2:15:00 hrs
  WARNING: Node 8 disconnected at 2:15:00 hrs
  WARNING: Node 10 disconnected at 2:15:00 hrs
  WARNING: Node 11 disconnected at 2:15:00 hrs
  WARNING: Node 12 disconnected at 2:15:00 hrs
  WARNING: Node 14 disconnected at 2:15:00 hrs
  WARNING: Node 15 disconnected at 2:15:00 hrs
  WARNING: Node 18 disconnected at 2:15:00 hrs
  WARNING: 36 additional nodes disconnected at 2:15:00 hrs
  WARNING: System disconnected because of Link 1
   
  WARNING: Negative pressures at 2:30:00 hrs.
  WARNING: System unbalanced at 2:30:00 hrs.
  WARNING: Node 5 disconnected at 2:30:00 hrs
  WARNING: Node 6 disconnected at 2:30:00 hrs
  WARNING: Node 7 disconnected at 2:30:00 hrs
  WARNING: Node 8 disconnected at 2:30:00 hrs
  WARNING: Node 10 disconnected at 2:30:00 hrs
  WARNING: Node 11 disconnected at 2:30:00 hrs
  WARNING: Node 12 disconnected at 2:30:00 hrs
  WARNING: Node 14 disconnected at 2:30:00 hrs
  WARNING: Node 15 disconnected at 2:30:00 hrs
  WARNING: Node 18 disconnected at 2:30:00 hrs
  WARNING: 36 additional nodes disconnected at 2:30:00 hrs
  WARNING: System disconnected because of Link 1
   
  WARNING: Negative pressures at 2:45:00 hrs.
  WARNING: System unbalanced at 2:45:00 hrs.
  WARNING: Node 5 disconnected at 2:45:00 hrs
  WARNING: Node 6 disconnected at 2:45:00 hrs
  WARNING: Node 7 disconnected at 2:45:00 hrs
  WARNING: Node 8 disconnected at 2:45:00 hrs
  WARNING: Node 10 disconnected at 2:45:00 hrs
  WARNING: Node 11 disconnected at 2:45:00 hrs
  WARNING: Node 12 disconnected at 2:45:00 hrs
  WARNING: Node 14 disconnected at 2:45:00 hrs
  WARNING: Node 15 disconnected at 2:45:00 hrs
  WARNING: Node 18 disconnected at 2:45:00 hrs
  WARNING: 36 additional nodes disconnected at 2:45:00 hrs
  WARNING: System disconnected because of Link 1
   
  WARNING: Negative pressures at 3:00:00 hrs.
  WARNING: System unbalanced at 3:00:00 hrs.
  WARNING: Node 5 disconnected at 3:00:00 hrs
  WARNING: Node 6 disconnected at 3:00:00 hrs
  WARNING: Node 7 disconnected at 3:00:00 hrs
  WARNING: Node 8 disconnected at 3:00:00 hrs
  WARNING: Node 10 disconnected at 3:00:00 hrs
  WARNING: Node 11 disconnected at 3:00:00 hrs
  WARNING: Node 12 disconnected at 3:00:00 hrs
  WARNING: Node 14 disconnected at 3:00:00 hrs
  WARNING: Node 15 disconnected at 3:00:00 hrs
  WARNING: Node 18 disconnected at 3:00:00 hrs
  WARNING: 36 additional nodes disconnected at 3:00:00 hrs
  WARNING: System disconnected because of Link 1
   
  WARNING: Negative pressures at 3:15:00 hrs.
  WARNING: System unbalanced at 3:15:00 hrs.
  WARNING: Node 5 disconnected at 3:15:00 hrs
  WARNING: Node 6 disconnected at 3:15:00 hrs
  WARNING: Node 7 disconnected at 3:15:00 hrs
  WARNING: Node 8 disconnected at 3:15:00 hrs
  WARNING: Node 10 disconnected at 3:15:00 hrs
  WARNING: Node 11 disconnected at 3:15:00 hrs
  WARNING: Node 12 disconnected at 3:15:00 hrs
  WARNING: Node 14 disconnected at 3:15:00 hrs
  WARNING: Node 15 disconnected at 3:15:00 hrs
  WARNING: Node 18 disconnected at 3:15:00 hrs
  WARNING: 36 additional nodes disconnected at 3:15:00 hrs
  WARNING: System disconnected because of Link 1
   
  WARNING: Negative pressures at 3:30:00 hrs.
  WARNING: System unbalanced at 3:30:00 hrs.
  WARNING: Node 5 disconnected at 3:30:00 hrs
  WARNING: Node 6 disconnected at 3:30:00 hrs
  WARNING: Node 7 disconnected at 3:30:00 hrs
  WARNING: Node 8 disconnected at 3:30:00 hrs
  WARNING: Node 10 disconnected at 3:30:00 hrs
  WARNING: Node 11 disconnected at 3:30:00 hrs
  WARNING: Node 12 disconnected at 3:30:00 hrs
  WARNING: Node 14 disconnected at 3:30:00 hrs
  WARNING: Node 15 disconnected at 3:30:00 hrs
  WARNING: Node 18 disconnected at 3:30:00 hrs
  WARNING: 36 additional nodes disconnected at 3:30:00 hrs
  WARNING: System disconnected because of Link 1
   
  WARNING: Negative pressures at 3:45:00 hrs.
  WARNING: System unbalanced at 3:45:00 hrs.
  WARNING: Node 5 disconnected at 3:45:00 hrs
  WARNING: Node 6 disconnected at 3:45:00 hrs
  WARNING: Node 7 disconnected at 3:45:00 hrs
  WARNING: Node 8 disconnected at 3:45:00 hrs
  WARNING: Node 10 disconnected at 3:45:00 hrs
  WARNING: Node 11 disconnected at 3:45:00 hrs
  WARNING: Node 12 disconnected at 3:45:00 hrs
  WARNING: Node 14 disconnected at 3:45:00 hrs
  WARNING: Node 15 disconnected at 3:45:00 hrs
  WARNING: Node 18 disconnected at 3:45:00 hrs
  WARNING: 36 additional nodes disconnected at 3:45:00 hrs
  WARNING: System disconnected because of Link 1
   
  WARNING: Negative pressures at 4:00:00 hrs.
  WARNING: System unbalanced at 4:00:00 hrs.
  WARNING: Node 5 disconnected at 4:00:00 hrs
  WARNING: Node 6 disconnected at 4:00:00 hrs
  WARNING: Node 7 disconnected at 4:00:00 hrs
  WARNING: Node 8 disconnected at 4:00:00 hrs
  WARNING: Node 10 disconnected at 4:00:00 hrs
  WARNING: Node 11 disconnected at 4:00:00 hrs
  WARNING: Node 12 disconnected at 4:00:00 hrs
  WARNING: Node 14 disconnected at 4:00:00 hrs
  WARNING: Node 15 disconnected at 4:00:00 hrs
  WARNING: Node 18 disconnected at 4:00:00 hrs
  WARNING: 36 additional nodes disconnected at 4:00:00 hrs
  WARNING: System disconnected because of Link 1
   
  WARNING: Negative pressures at 4:15:00 hrs.
  WARNING: System unbalanced at 4:15:00 hrs.
  WARNING: Node 5 disconnected at 4:15:00 hrs
  WARNING: Node 6 disconnected at 4:15:00 hrs
  WARNING: Node 7 disconnected at 4:15:00 hrs
  WARNING: Node 8 disconnected at 4:15:00 hrs
  WARNING: Node 10 disconnected at 4:15:00 hrs
  WARNING: Node 11 disconnected at 4:15:00 hrs
  WARNING: Node 12 disconnected at 4:15:00 hrs
  WARNING: Node 14 disconnected at 4:15:00 hrs
  WARNING: Node 15 disconnected at 4:15:00 hrs
  WARNING: Node 18 disconnected at 4:15:00 hrs
  WARNING: 36 additional nodes disconnected at 4:15:00 hrs
  WARNING: System disconnected because of Link 1
   
  WARNING: Negative pressures at 4:30:00 hrs.
  WARNING: System unbalanced at 4:30:00 hrs.
  WARNING: Node 5 disconnected at 4:30:00 hrs
  WARNING: Node 6 disconnected at 4:30:00 hrs
  WARNING: Node 7 disconnected at 4:30:00 hrs
  WARNING: Node 8 disconnected at 4:30:00 hrs
  WARNING: Node 10 disconnected at 4:30:00 hrs
  WARNING: Node 11 disconnected at 4:30:00 hrs
  WARNING: Node 12 disconnected at 4:30:00 hrs
  WARNING: Node 14 disconnected at 4:30:00 hrs
  WARNING: Node 15 disconnected at 4:30:00 hrs
  WARNING: Node 18 disconnected at 4:30:00 hrs
  WARNING: 36 additional nodes disconnected at 4:30:00 hrs
  WARNING: System disconnected because of Link 1
   
  WARNING: Negative pressures at 4:45:00 hrs.
  WARNING: System unbalanced at 4:45:00 hrs.
  WARNING: Node 5 disconnected at 4:45:00 hrs
  WARNING: Node 6 disconnected at 4:45:00 hrs
  WARNING: Node 7 disconnected at 4:45:00 hrs
  WARNING: Node 8 disconnected at 4:45:00 hrs
  WARNING: Node 10 disconnected at 4:45:00 hrs
  WARNING: Node 11 disconnected at 4:45:00 hrs
  WARNING: Node 12 disconnected at 4:45:00 hrs
  WARNING: Node 14 disconnected at 4:45:00 hrs
  WARNING: Node 15 disconnected at 4:45:00 hrs
  WARNING: Node 18 disconnected at 4:45:00 hrs
  WARNING: 36 additional nodes disconnected at 4:45:00 hrs
  WARNING: System disconnected because of Link 1
   
  WARNING: Negative pressures at 5:00:00 hrs.
  WARNING: System unbalanced at 5:00:00 hrs.
  WARNING: Node 5 disconnected at 5:00:00 hrs
  WARNING: Node 6 disconnected at 5:00:00 hrs
  WARNING: Node 7 disconnected at 5:00:00 hrs
  WARNING: Node 8 disconnected at 5:00:00 hrs
  WARNING: Node 10 disconnected at 5:00:00 hrs
  WARNING: Node 11 disconnected at 5:00:00 hrs
  WARNING: Node 12 disconnected at 5:00:00 hrs
  WARNING: Node 14 disconnected at 5:00:00 hrs
  WARNING: Node 15 disconnected at 5:00:00 hrs
  WARNING: Node 18 disconnected at 5:00:00 hrs
  WARNING: 36 additional nodes disconnected at 5:00:00 hrs
  WARNING: System disconnected because of Link 1
   
  WARNING: Negative pressures at 5:15:00 hrs.
  WARNING: System unbalanced at 5:15:00 hrs.
  WARNING: Node 5 disconnected at 5:15:00 hrs
  WARNING: Node 6 disconnected at 5:15:00 hrs
  WARNING: Node 7 disconnected at 5:15:00 hrs
  WARNING: Node 8 disconnected at 5:15:00 hrs
  WARNING: Node 10 disconnected at 5:15:00 hrs
  WARNING: Node 11 disconnected at 5:15:00 hrs
  WARNING: Node 12 disconnected at 5:15:00 hrs
  WARNING: Node 14 disconnected at 5:15:00 hrs
  WARNING: Node 15 disconnected at 5:15:00 hrs
  WARNING: Node 18 disconnected at 5:15:00 hrs
  WARNING: 36 additional nodes disconnected at 5:15:00 hrs
  WARNING: System disconnected because of Link 1
   
  WARNING: Negative pressures at 5:30:00 hrs.
  WARNING: System unbalanced at 5:30:00 hrs.
  WARNING: Node 5 disconnected at 5:30:00 hrs
  WARNING: Node 6 disconnected at 5:30:00 hrs
  WARNING: Node 7 disconnected at 5:30:00 hrs
  WARNING: Node 8 disconnected at 5:30:00 hrs
  WARNING: Node 10 disconnected at 5:30:00 hrs
  WARNING: Node 11 disconnected at 5:30:00 hrs
  WARNING: Node 12 disconnected at 5:30:00 hrs
  WARNING: Node 14 disconnected at 5:30:00 hrs
  WARNING: Node 15 disconnected at 5:30:00 hrs
  WARNING: Node 18 disconnected at 5:30:00 hrs
  WARNING: 36 additional nodes disconnected at 5:30:00 hrs
  WARNING: System disconnected because of Link 1
   
  WARNING: Negative pressures at 5:45:00 hrs.
  WARNING: System unbalanced at 5:45:00 hrs.
  WARNING: Node 5 disconnected at 5:45:00 hrs
  WARNING: Node 6 disconnected at 5:45:00 hrs
  WARNING: Node 7 disconnected at 5:45:00 hrs
  WARNING: Node 8 disconnected at 5:45:00 hrs
  WARNING: Node 10 disconnected at 5:45:00 hrs
  WARNING: Node 11 disconnected at 5:45:00 hrs
  WARNING: Node 12 disconnected at 5:45:00 hrs
  WARNING: Node 14 disconnected at 5:45:00 hrs
  WARNING: Node 15 disconnected at 5:45:00 hrs
  WARNING: Node 18 disconnected at 5:45:00 hrs
  WARNING: 36 additional nodes disconnected at 5:45:00 hrs
  WARNING: System disconnected because of Link 1
   
  WARNING: Negative pressures at 6:00:00 hrs.
  WARNING: System unbalanced at 6:00:00 hrs.
  WARNING: Node 5 disconnected at 6:00:00 hrs
  WARNING: Node 6 disconnected at 6:00:00 hrs
  WARNING: Node 7 disconnected at 6:00:00 hrs
  WARNING: Node 8 disconnected at 6:00:00 hrs
  WARNING: Node 10 disconnected at 6:00:00 hrs
  WARNING: Node 11 disconnected at 6:00:00 hrs
  WARNING: Node 12 disconnected at 6:00:00 hrs
  WARNING: Node 14 disconnected at 6:00:00 hrs
  WARNING: Node 15 disconnected at 6:00:00 hrs
  WARNING: Node 18 disconnected at 6:00:00 hrs
  WARNING: 36 additional nodes disconnected at 6:00:00 hrs
  WARNING: System disconnected because of Link 1
   
  WARNING: Negative pressures at 6:15:00 hrs.
  WARNING: System unbalanced at 6:15:00 hrs.
  WARNING: Node 5 disconnected at 6:15:00 hrs
  WARNING: Node 6 disconnected at 6:15:00 hrs
  WARNING: Node 7 disconnected at 6:15:00 hrs
  WARNING: Node 8 disconnected at 6:15:00 hrs
  WARNING: Node 10 disconnected at 6:15:00 hrs
  WARNING: Node 11 disconnected at 6:15:00 hrs
  WARNING: Node 12 disconnected at 6:15:00 hrs
  WARNING: Node 14 disconnected at 6:15:00 hrs
  WARNING: Node 15 disconnected at 6:15:00 hrs
  WARNING: Node 18 disconnected at 6:15:00 hrs
  WARNING: 36 additional nodes disconnected at 6:15:00 hrs
  WARNING: System disconnected because of Link 1
   
  WARNING: Negative pressures at 6:30:00 hrs.
  WARNING: System unbalanced at 6:30:00 hrs.
  WARNING: Node 5 disconnected at 6:30:00 hrs
  WARNING: Node 6 disconnected at 6:30:00 hrs
  WARNING: Node 7 disconnected at 6:30:00 hrs
  WARNING: Node 8 disconnected at 6:30:00 hrs
  WARNING: Node 10 disconnected at 6:30:00 hrs
  WARNING: Node 11 disconnected at 6:30:00 hrs
  WARNING: Node 12 disconnected at 6:30:00 hrs
  WARNING: Node 14 disconnected at 6:30:00 hrs
  WARNING: Node 15 disconnected at 6:30:00 hrs
  WARNING: Node 18 disconnected at 6:30:00 hrs
  WARNING: 36 additional nodes disconnected at 6:30:00 hrs
  WARNING: System disconnected because of Link 1
   
  WARNING: Negative pressures at 6:45:00 hrs.
  WARNING: System unbalanced at 6:45:00 hrs.
  WARNING: Node 5 disconnected at 6:45:00 hrs
  WARNING: Node 6 disconnected at 6:45:00 hrs
  WARNING: Node 7 disconnected at 6:45:00 hrs
  WARNING: Node 8 disconnected at 6:45:00 hrs
  WARNING: Node 10 disconnected at 6:45:00 hrs
  WARNING: Node 11 disconnected at 6:45:00 hrs
  WARNING: Node 12 disconnected at 6:45:00 hrs
  WARNING: Node 14 disconnected at 6:45:00 hrs
  WARNING: Node 15 disconnected at 6:45:00 hrs
  WARNING: Node 18 disconnected at 6:45:00 hrs
  WARNING: 36 additional nodes disconnected at 6:45:00 hrs
  WARNING: System disconnected because of Link 1
   
  WARNING: Negative pressures at 7:00:00 hrs.
  WARNING: System unbalanced at 7:00:00 hrs.
  WARNING: Node 5 disconnected at 7:00:00 hrs
  WARNING: Node 6 disconnected at 7:00:00 hrs
  WARNING: Node 7 disconnected at 7:00:00 hrs
  WARNING: Node 8 disconnected at 7:00:00 hrs
  WARNING: Node 10 disconnected at 7:00:00 hrs
  WARNING: Node 11 disconnected at 7:00:00 hrs
  WARNING: Node 12 disconnected at 7:00:00 hrs
  WARNING: Node 14 disconnected at 7:00:00 hrs
  WARNING: Node 15 disconnected at 7:00:00 hrs
  WARNING: Node 18 disconnected at 7:00:00 hrs
  WARNING: 36 additional nodes disconnected at 7:00:00 hrs
  WARNING: System disconnected because of Link 1
   
  WARNING: Negative pressures at 7:15:00 hrs.
  WARNING: System unbalanced at 7:15:00 hrs.
  WARNING: Node 5 disconnected at 7:15:00 hrs
  WARNING: Node 6 disconnected at 7:15:00 hrs
  WARNING: Node 7 disconnected at 7:15:00 hrs
  WARNING: Node 8 disconnected at 7:15:00 hrs
  WARNING: Node 10 disconnected at 7:15:00 hrs
  WARNING: Node 11 disconnected at 7:15:00 hrs
  WARNING: Node 12 disconnected at 7:15:00 hrs
  WARNING: Node 14 disconnected at 7:15:00 hrs
  WARNING: Node 15 disconnected at 7:15:00 hrs
  WARNING: Node 18 disconnected at 7:15:00 hrs
  WARNING: 36 additional nodes disconnected at 7:15:00 hrs
  WARNING: System disconnected because of Link 1
   
  WARNING: Negative pressures at 7:30:00 hrs.
  WARNING: System unbalanced at 7:30:00 hrs.
  WARNING: Node 5 disconnected at 7:30:00 hrs
  WARNING: Node 6 disconnected at 7:30:00 hrs
  WARNING: Node 7 disconnected at 7:30:00 hrs
  WARNING: Node 8 disconnected at 7:30:00 hrs
  WARNING: Node 10 disconnected at 7:30:00 hrs
  WARNING: Node 11 disconnected at 7:30:00 hrs
  WARNING: Node 12 disconnected at 7:30:00 hrs
  WARNING: Node 14 disconnected at 7:30:00 hrs
  WARNING: Node 15 disconnected at 7:30:00 hrs
  WARNING: Node 18 disconnected at 7:30:00 hrs
  WARNING: 36 additional nodes disconnected at 7:30:00 hrs
  WARNING: System disconnected because of Link 1
   
  WARNING: Negative pressures at 7:45:00 hrs.
  WARNING: System unbalanced at 7:45:00 hrs.
  WARNING: Node 5 disconnected at 7:45:00 hrs
  WARNING: Node 6 disconnected at 7:45:00 hrs
  WARNING: Node 7 disconnected at 7:45:00 hrs
  WARNING: Node 8 disconnected at 7:45:00 hrs
  WARNING: Node 10 disconnected at 7:45:00 hrs
  WARNING: Node 11 disconnected at 7:45:00 hrs
  WARNING: Node 12 disconnected at 7:45:00 hrs
  WARNING: Node 14 disconnected at 7:45:00 hrs
  WARNING: Node 15 disconnected at 7:45:00 hrs
  WARNING: Node 18 disconnected at 7:45:00 hrs
  WARNING: 36 additional nodes disconnected at 7:45:00 hrs
  WARNING: System disconnected because of Link 1
   
  WARNING: Negative pressures at 8:00:00 hrs.
  WARNING: System unbalanced at 8:00:00 hrs.
  WARNING: Node 5 disconnected at 8:00:00 hrs
  WARNING: Node 6 disconnected at 8:00:00 hrs
  WARNING: Node 7 disconnected at 8:00:00 hrs
  WARNING: Node 8 disconnected at 8:00:00 hrs
  WARNING: Node 10 disconnected at 8:00:00 hrs
  WARNING: Node 11 disconnected at 8:00:00 hrs
  WARNING: Node 12 disconnected at 8:00:00 hrs
  WARNING: Node 14 disconnected at 8:00:00 hrs
  WARNING: Node 15 disconnected at 8:00:00 hrs
  WARNING: Node 18 disconnected at 8:00:00 hrs
  WARNING: 36 additional nodes disconnected at 8:00:00 hrs
  WARNING: System disconnected because of Link 1
   
  WARNING: Negative pressures at 8:15:00 hrs.
  WARNING: System unbalanced at 8:15:00 hrs.
  WARNING: Node 5 disconnected at 8:15:00 hrs
  WARNING: Node 6 disconnected at 8:15:00 hrs
  WARNING: Node 7 disconnected at 8:15:00 hrs
  WARNING: Node 8 disconnected at 8:15:00 hrs
  WARNING: Node 10 disconnected at 8:15:00 hrs
  WARNING: Node 11 disconnected at 8:15:00 hrs
  WARNING: Node 12 disconnected at 8:15:00 hrs
  WARNING: Node 14 disconnected at 8:15:00 hrs
  WARNING: Node 15 disconnected at 8:15:00 hrs
  WARNING: Node 18 disconnected at 8:15:00 hrs
  WARNING: 36 additional nodes disconnected at 8:15:00 hrs
  WARNING: System disconnected because of Link 1
   
  WARNING: Negative pressures at 8:30:00 hrs.
  WARNING: System unbalanced at 8:30:00 hrs.
  WARNING: Node 5 disconnected at 8:30:00 hrs
  WARNING: Node 6 disconnected at 8:30:00 hrs
  WARNING: Node 7 disconnected at 8:30:00 hrs
  WARNING: Node 8 disconnected at 8:30:00 hrs
  WARNING: Node 10 disconnected at 8:30:00 hrs
  WARNING: Node 11 disconnected at 8:30:00 hrs
  WARNING: Node 12 disconnected at 8:30:00 hrs
  WARNING: Node 14 disconnected at 8:30:00 hrs
  WARNING: Node 15 disconnected at 8:30:00 hrs
  WARNING: Node 18 disconnected at 8:30:00 hrs
  WARNING: 36 additional nodes disconnected at 8:30:00 hrs
  WARNING: System disconnected because of Link 1
   
  WARNING: Negative pressures at 8:45:00 hrs.
  WARNING: System unbalanced at 8:45:00 hrs.
  WARNING: Node 5 disconnected at 8:45:00 hrs
  WARNING: Node 6 disconnected at 8:45:00 hrs
  WARNING: Node 7 disconnected at 8:45:00 hrs
  WARNING: Node 8 disconnected at 8:45:00 hrs
  WARNING: Node 10 disconnected at 8:45:00 hrs
  WARNING: Node 11 disconnected at 8:45:00 hrs
  WARNING: Node 12 disconnected at 8:45:00 hrs
  WARNING: Node 14 disconnected at 8:45:00 hrs
  WARNING: Node 15 disconnected at 8:45:00 hrs
  WARNING: Node 18 disconnected at 8:45:00 hrs
  WARNING: 36 additional nodes disconnected at 8:45:00 hrs
  WARNING: System disconnected because of Link 1
   
  WARNING: Negative pressures at 9:00:00 hrs.
  WARNING: System unbalanced at 9:00:00 hrs.
  WARNING: Node 5 disconnected at 9:00:00 hrs
  WARNING: Node 6 disconnected at 9:00:00 hrs
  WARNING: Node 7 disconnected at 9:00:00 hrs
  WARNING: Node 8 disconnected at 9:00:00 hrs
  WARNING: Node 10 disconnected at 9:00:00 hrs
  WARNING: Node 11 disconnected at 9:00:00 hrs
  WARNING: Node 12 disconnected at 9:00:00 hrs
  WARNING: Node 14 disconnected at 9:00:00 hrs
  WARNING: Node 15 disconnected at 9:00:00 hrs
  WARNING: Node 18 disconnected at 9:00:00 hrs
  WARNING: 36 additional nodes disconnected at 9:00:00 hrs
  WARNING: System disconnected because of Link 1
   
  WARNING: Negative pressures at 9:15:00 hrs.
  WARNING: System unbalanced at 9:15:00 hrs.
  WARNING: Node 5 disconnected at 9:15:00 hrs
  WARNING: Node 6 disconnected at 9:15:00 hrs
  WARNING: Node 7 disconnected at 9:15:00 hrs
  WARNING: Node 8 disconnected at 9:15:00 hrs
  WARNING: Node 10 disconnected at 9:15:00 hrs
  WARNING: Node 11 disconnected at 9:15:00 hrs
  WARNING: Node 12 disconnected at 9:15:00 hrs
  WARNING: Node 14 disconnected at 9:15:00 hrs
  WARNING: Node 15 disconnected at 9:15:00 hrs
  WARNING: Node 18 disconnected at 9:15:00 hrs
  WARNING: 36 additional nodes disconnected at 9:15:00 hrs
  WARNING: System disconnected because of Link 1
   
  WARNING: Negative pressures at 9:30:00 hrs.
  WARNING: System unbalanced at 9:30:00 hrs.
  WARNING: Node 5 disconnected at 9:30:00 hrs
  WARNING: Node 6 disconnected at 9:30:00 hrs
  WARNING: Node 7 disconnected at 9:30:00 hrs
  WARNING: Node 8 disconnected at 9:30:00 hrs
  WARNING: Node 10 disconnected at 9:30:00 hrs
  WARNING: Node 11 disconnected at 9:30:00 hrs
  WARNING: Node 12 disconnected at 9:30:00 hrs
  WARNING: Node 14 disconnected at 9:30:00 hrs
  WARNING: Node 15 disconnected at 9:30:00 hrs
  WARNING: Node 18 disconnected at 9:30:00 hrs
  WARNING: 36 additional nodes disconnected at 9:30:00 hrs
  WARNING: System disconnected because of Link 1
   
  WARNING: Negative pressures at 9:45:00 hrs.
  WARNING: System unbalanced at 9:45:00 hrs.
  WARNING: Node 5 disconnected at 9:45:00 hrs
  WARNING: Node 6 disconnected at 9:45:00 hrs
  WARNING: Node 7 disconnected at 9:45:00 hrs
  WARNING: Node 8 disconnected at 9:45:00 hrs
  WARNING: Node 10 disconnected at 9:45:00 hrs
  WARNING: Node 11 disconnected at 9:45:00 hrs
  WARNING: Node 12 disconnected at 9:45:00 hrs
  WARNING: Node 14 disconnected at 9:45:00 hrs
  WARNING: Node 15 disconnected at 9:45:00 hrs
  WARNING: Node 18 disconnected at 9:45:00 hrs
  WARNING: 36 additional nodes disconnected at 9:45:00 hrs
  WARNING: System disconnected because of Link 1
   
  WARNING: Negative pressures at 10:00:00 hrs.
  WARNING: System unbalanced at 10:00:00 hrs.
  WARNING: Node 5 disconnected at 10:00:00 hrs
  WARNING: Node 6 disconnected at 10:00:00 hrs
  WARNING: Node 7 disconnected at 10:00:00 hrs
  WARNING: Node 8 disconnected at 10:00:00 hrs
  WARNING: Node 10 disconnected at 10:00:00 hrs
  WARNING: Node 11 disconnected at 10:00:00 hrs
  WARNING: Node 12 disconnected at 10:00:00 hrs
  WARNING: Node 14 disconnected at 10:00:00 hrs
  WARNING: Node 15 disconnected at 10:00:00 hrs
  WARNING: Node 18 disconnected at 10:00:00 hrs
  WARNING: 36 additional nodes disconnected at 10:00:00 hrs
  WARNING: System disconnected because of Link 1
   
  WARNING: Negative pressures at 10:15:00 hrs.
  WARNING: System unbalanced at 10:15:00 hrs.
  WARNING: Node 5 disconnected at 10:15:00 hrs
  WARNING: Node 6 disconnected at 10:15:00 hrs
  WARNING: Node 7 disconnected at 10:15:00 hrs
  WARNING: Node 8 disconnected at 10:15:00 hrs
  WARNING: Node 10 disconnected at 10:15:00 hrs
  WARNING: Node 11 disconnected at 10:15:00 hrs
  WARNING: Node 12 disconnected at 10:15:00 hrs
  WARNING: Node 14 disconnected at 10:15:00 hrs
  WARNING: Node 15 disconnected at 10:15:00 hrs
  WARNING: Node 18 disconnected at 10:15:00 hrs
  WARNING: 36 additional nodes disconnected at 10:15:00 hrs
  WARNING: System disconnected because of Link 1
   
  WARNING: Negative pressures at 10:30:00 hrs.
  WARNING: System unbalanced at 10:30:00 hrs.
  WARNING: Node 5 disconnected at 10:30:00 hrs
  WARNING: Node 6 disconnected at 10:30:00 hrs
  WARNING: Node 7 disconnected at 10:30:00 hrs
  WARNING: Node 8 disconnected at 10:30:00 hrs
  WARNING: Node 10 disconnected at 10:30:00 hrs
  WARNING: Node 11 disconnected at 10:30:00 hrs
  WARNING: Node 12 disconnected at 10:30:00 hrs
  WARNING: Node 14 disconnected at 10:30:00 hrs
  WARNING: Node 15 disconnected at 10:30:00 hrs
  WARNING: Node 18 disconnected at 10:30:00 hrs
  WARNING: 36 additional nodes disconnected at 10:30:00 hrs
  WARNING: System disconnected because of Link 1
   
  WARNING: Negative pressures at 10:45:00 hrs.
  WARNING: System unbalanced at 10:45:00 hrs.
  WARNING: Node 5 disconnected at 10:45:00 hrs
  WARNING: Node 6 disconnected at 10:45:00 hrs
  WARNING: Node 7 disconnected at 10:45:00 hrs
  WARNING: Node 8 disconnected at 10:45:00 hrs
  WARNING: Node 10 disconnected at 10:45:00 hrs
  WARNING: Node 11 disconnected at 10:45:00 hrs
  WARNING: Node 12 disconnected at 10:45:00 hrs
  WARNING: Node 14 disconnected at 10:45:00 hrs
  WARNING: Node 15 disconnected at 10:45:00 hrs
  WARNING: Node 18 disconnected at 10:45:00 hrs
  WARNING: 36 additional nodes disconnected at 10:45:00 hrs
  WARNING: System disconnected because of Link 1
   
  WARNING: Negative pressures at 11:00:00 hrs.
  WARNING: System unbalanced at 11:00:00 hrs.
  WARNING: Node 5 disconnected at 11:00:00 hrs
  WARNING: Node 6 disconnected at 11:00:00 hrs
  WARNING: Node 7 disconnected at 11:00:00 hrs
  WARNING: Node 8 disconnected at 11:00:00 hrs
  WARNING: Node 10 disconnected at 11:00:00 hrs
  WARNING: Node 11 disconnected at 11:00:00 hrs
  WARNING: Node 12 disconnected at 11:00:00 hrs
  WARNING: Node 14 disconnected at 11:00:00 hrs
  WARNING: Node 15 disconnected at 11:00:00 hrs
  WARNING: Node 18 disconnected at 11:00:00 hrs
  WARNING: 36 additional nodes disconnected at 11:00:00 hrs
  WARNING: System disconnected because of Link 1
   
  WARNING: Negative pressures at 11:15:00 hrs.
  WARNING: System unbalanced at 11:15:00 hrs.
  WARNING: Node 5 disconnected at 11:15:00 hrs
  WARNING: Node 6 disconnected at 11:15:00 hrs
  WARNING: Node 7 disconnected at 11:15:00 hrs
  WARNING: Node 8 disconnected at 11:15:00 hrs
  WARNING: Node 10 disconnected at 11:15:00 hrs
  WARNING: Node 11 disconnected at 11:15:00 hrs
  WARNING: Node 12 disconnected at 11:15:00 hrs
  WARNING: Node 14 disconnected at 11:15:00 hrs
  WARNING: Node 15 disconnected at 11:15:00 hrs
  WARNING: Node 18 disconnected at 11:15:00 hrs
  WARNING: 36 additional nodes disconnected at 11:15:00 hrs
  WARNING: System disconnected because of Link 1
   
  WARNING: Negative pressures at 11:30:00 hrs.
  WARNING: System unbalanced at 11:30:00 hrs.
  WARNING: Node 5 disconnected at 11:30:00 hrs
  WARNING: Node 6 disconnected at 11:30:00 hrs
  WARNING: Node 7 disconnected at 11:30:00 hrs
  WARNING: Node 8 disconnected at 11:30:00 hrs
  WARNING: Node 10 disconnected at 11:30:00 hrs
  WARNING: Node 11 disconnected at 11:30:00 hrs
  WARNING: Node 12 disconnected at 11:30:00 hrs
  WARNING: Node 14 disconnected at 11:30:00 hrs
  WARNING: Node 15 disconnected at 11:30:00 hrs
  WARNING: Node 18 disconnected at 11:30:00 hrs
  WARNING: 36 additional nodes disconnected at 11:30:00 hrs
  WARNING: System disconnected because of Link 1
   
  WARNING: Negative pressures at 11:45:00 hrs.
  WARNING: System unbalanced at 11:45:00 hrs.
  WARNING: Node 5 disconnected at 11:45:00 hrs
  WARNING: Node 6 disconnected at 11:45:00 hrs
  WARNING: Node 7 disconnected at 11:45:00 hrs
  WARNING: Node 8 disconnected at 11:45:00 hrs
  WARNING: Node 10 disconnected at 11:45:00 hrs
  WARNING: Node 11 disconnected at 11:45:00 hrs
  WARNING: Node 12 disconnected at 11:45:00 hrs
  WARNING: Node 14 disconnected at 11:45:00 hrs
  WARNING: Node 15 disconnected at 11:45:00 hrs
  WARNING: Node 18 disconnected at 11:45:00 hrs
  WARNING: 36 additional nodes disconnected at 11:45:00 hrs
  WARNING: System disconnected because of Link 1
   
  WARNING: Negative pressures at 12:00:00 hrs.
  WARNING: System unbalanced at 12:00:00 hrs.
  WARNING: Node 5 disconnected at 12:00:00 hrs
  WARNING: Node 6 disconnected at 12:00:00 hrs
  WARNING: Node 7 disconnected at 12:00:00 hrs
  WARNING: Node 8 disconnected at 12:00:00 hrs
  WARNING: Node 10 disconnected at 12:00:00 hrs
  WARNING: Node 11 disconnected at 12:00:00 hrs
  WARNING: Node 12 disconnected at 12:00:00 hrs
  WARNING: Node 14 disconnected at 12:00:00 hrs
  WARNING: Node 15 disconnected at 12:00:00 hrs
  WARNING: Node 18 disconnected at 12:00:00 hrs
  WARNING: 36 additional nodes disconnected at 12:00:00 hrs
  WARNING: System disconnected because of Link 1
   
  WARNING: Negative pressures at 12:15:00 hrs.
  WARNING: System unbalanced at 12:15:00 hrs.
  WARNING: Node 5 disconnected at 12:15:00 hrs
  WARNING: Node 6 disconnected at 12:15:00 hrs
  WARNING: Node 7 disconnected at 12:15:00 hrs
  WARNING: Node 8 disconnected at 12:15:00 hrs
  WARNING: Node 10 disconnected at 12:15:00 hrs
  WARNING: Node 11 disconnected at 12:15:00 hrs
  WARNING: Node 12 disconnected at 12:15:00 hrs
  WARNING: Node 14 disconnected at 12:15:00 hrs
  WARNING: Node 15 disconnected at 12:15:00 hrs
  WARNING: Node 18 disconnected at 12:15:00 hrs
  WARNING: 36 additional nodes disconnected at 12:15:00 hrs
  WARNING: System disconnected because of Link 1
   
  WARNING: Negative pressures at 12:30:00 hrs.
  WARNING: System unbalanced at 12:30:00 hrs.
  WARNING: Node 5 disconnected at 12:30:00 hrs
  WARNING: Node 6 disconnected at 12:30:00 hrs
  WARNING: Node 7 disconnected at 12:30:00 hrs
  WARNING: Node 8 disconnected at 12:30:00 hrs
  WARNING: Node 10 disconnected at 12:30:00 hrs
  WARNING: Node 11 disconnected at 12:30:00 hrs
  WARNING: Node 12 disconnected at 12:30:00 hrs
  WARNING: Node 14 disconnected at 12:30:00 hrs
  WARNING: Node 15 disconnected at 12:30:00 hrs
  WARNING: Node 18 disconnected at 12:30:00 hrs
  WARNING: 36 additional nodes disconnected at 12:30:00 hrs
  WARNING: System disconnected because of Link 1
   
  WARNING: Negative pressures at 12:45:00 hrs.
  WARNING: System unbalanced at 12:45:00 hrs.
  WARNING: Node 5 disconnected at 12:45:00 hrs
  WARNING: Node 6 disconnected at 12:45:00 hrs
  WARNING: Node 7 disconnected at 12:45:00 hrs
  WARNING: Node 8 disconnected at 12:45:00 hrs
  WARNING: Node 10 disconnected at 12:45:00 hrs
  WARNING: Node 11 disconnected at 12:45:00 hrs
  WARNING: Node 12 disconnected at 12:45:00 hrs
  WARNING: Node 14 disconnected at 12:45:00 hrs
  WARNING: Node 15 disconnected at 12:45:00 hrs
  WARNING: Node 18 disconnected at 12:45:00 hrs
  WARNING: 36 additional nodes disconnected at 12:45:00 hrs
  WARNING: System disconnected because of Link 1
   
  WARNING: Negative pressures at 13:00:00 hrs.
  WARNING: System unbalanced at 13:00:00 hrs.
  WARNING: Node 5 disconnected at 13:00:00 hrs
  WARNING: Node 6 disconnected at 13:00:00 hrs
  WARNING: Node 7 disconnected at 13:00:00 hrs
  WARNING: Node 8 disconnected at 13:00:00 hrs
  WARNING: Node 10 disconnected at 13:00:00 hrs
  WARNING: Node 11 disconnected at 13:00:00 hrs
  WARNING: Node 12 disconnected at 13:00:00 hrs
  WARNING: Node 14 disconnected at 13:00:00 hrs
  WARNING: Node 15 disconnected at 13:00:00 hrs
  WARNING: Node 18 disconnected at 13:00:00 hrs
  WARNING: 36 additional nodes disconnected at 13:00:00 hrs
  WARNING: System disconnected because of Link 1
   
  WARNING: Negative pressures at 13:15:00 hrs.
  WARNING: System unbalanced at 13:15:00 hrs.
  WARNING: Node 5 disconnected at 13:15:00 hrs
  WARNING: Node 6 disconnected at 13:15:00 hrs
  WARNING: Node 7 disconnected at 13:15:00 hrs
  WARNING: Node 8 disconnected at 13:15:00 hrs
  WARNING: Node 10 disconnected at 13:15:00 hrs
  WARNING: Node 11 disconnected at 13:15:00 hrs
  WARNING: Node 12 disconnected at 13:15:00 hrs
  WARNING: Node 14 disconnected at 13:15:00 hrs
  WARNING: Node 15 disconnected at 13:15:00 hrs
  WARNING: Node 18 disconnected at 13:15:00 hrs
  WARNING: 36 additional nodes disconnected at 13:15:00 hrs
  WARNING: System disconnected because of Link 1
   
  WARNING: Negative pressures at 13:30:00 hrs.
  WARNING: System unbalanced at 13:30:00 hrs.
  WARNING: Node 5 disconnected at 13:30:00 hrs
  WARNING: Node 6 disconnected at 13:30:00 hrs
  WARNING: Node 7 disconnected at 13:30:00 hrs
  WARNING: Node 8 disconnected at 13:30:00 hrs
  WARNING: Node 10 disconnected at 13:30:00 hrs
  WARNING: Node 11 disconnected at 13:30:00 hrs
  WARNING: Node 12 disconnected at 13:30:00 hrs
  WARNING: Node 14 disconnected at 13:30:00 hrs
  WARNING: Node 15 disconnected at 13:30:00 hrs
  WARNING: Node 18 disconnected at 13:30:00 hrs
  WARNING: 36 additional nodes disconnected at 13:30:00 hrs
  WARNING: System disconnected because of Link 1
   
  WARNING: Negative pressures at 13:45:00 hrs.
  WARNING: System unbalanced at 13:45:00 hrs.
  WARNING: Node 5 disconnected at 13:45:00 hrs
  WARNING: Node 6 disconnected at 13:45:00 hrs
  WARNING: Node 7 disconnected at 13:45:00 hrs
  WARNING: Node 8 disconnected at 13:45:00 hrs
  WARNING: Node 10 disconnected at 13:45:00 hrs
  WARNING: Node 11 disconnected at 13:45:00 hrs
  WARNING: Node 12 disconnected at 13:45:00 hrs
  WARNING: Node 14 disconnected at 13:45:00 hrs
  WARNING: Node 15 disconnected at 13:45:00 hrs
  WARNING: Node 18 disconnected at 13:45:00 hrs
  WARNING: 36 additional nodes disconnected at 13:45:00 hrs
  WARNING: System disconnected because of Link 1
   
  WARNING: Negative pressures at 14:00:00 hrs.
  WARNING: System unbalanced at 14:00:00 hrs.
  WARNING: Node 5 disconnected at 14:00:00 hrs
  WARNING: Node 6 disconnected at 14:00:00 hrs
  WARNING: Node 7 disconnected at 14:00:00 hrs
  WARNING: Node 8 disconnected at 14:00:00 hrs
  WARNING: Node 10 disconnected at 14:00:00 hrs
  WARNING: Node 11 disconnected at 14:00:00 hrs
  WARNING: Node 12 disconnected at 14:00:00 hrs
  WARNING: Node 14 disconnected at 14:00:00 hrs
  WARNING: Node 15 disconnected at 14:00:00 hrs
  WARNING: Node 18 disconnected at 14:00:00 hrs
  WARNING: 36 additional nodes disconnected at 14:00:00 hrs
  WARNING: System disconnected because of Link 1
   
  WARNING: Negative pressures at 14:15:00 hrs.
  WARNING: System unbalanced at 14:15:00 hrs.
  WARNING: Node 5 disconnected at 14:15:00 hrs
  WARNING: Node 6 disconnected at 14:15:00 hrs
  WARNING: Node 7 disconnected at 14:15:00 hrs
  WARNING: Node 8 disconnected at 14:15:00 hrs
  WARNING: Node 10 disconnected at 14:15:00 hrs
  WARNING: Node 11 disconnected at 14:15:00 hrs
  WARNING: Node 12 disconnected at 14:15:00 hrs
  WARNING: Node 14 disconnected at 14:15:00 hrs
  WARNING: Node 15 disconnected at 14:15:00 hrs
  WARNING: Node 18 disconnected at 14:15:00 hrs
  WARNING: 36 additional nodes disconnected at 14:15:00 hrs
  WARNING: System disconnected because of Link 1
   
  WARNING: Negative pressures at 14:30:00 hrs.
  WARNING: System unbalanced at 14:30:00 hrs.
  WARNING: Node 5 disconnected at 14:30:00 hrs
  WARNING: Node 6 disconnected at 14:30:00 hrs
  WARNING: Node 7 disconnected at 14:30:00 hrs
  WARNING: Node 8 disconnected at 14:30:00 hrs
  WARNING: Node 10 disconnected at 14:30:00 hrs
  WARNING: Node 11 disconnected at 14:30:00 hrs
  WARNING: Node 12 disconnected at 14:30:00 hrs
  WARNING: Node 14 disconnected at 14:30:00 hrs
  WARNING: Node 15 disconnected at 14:30:00 hrs
  WARNING: Node 18 disconnected at 14:30:00 hrs
  WARNING: 36 additional nodes disconnected at 14:30:00 hrs
  WARNING: System disconnected because of Link 1
   
  WARNING: Negative pressures at 14:45:00 hrs.
  WARNING: System unbalanced at 14:45:00 hrs.
  WARNING: Node 5 disconnected at 14:45:00 hrs
  WARNING: Node 6 disconnected at 14:45:00 hrs
  WARNING: Node 7 disconnected at 14:45:00 hrs
  WARNING: Node 8 disconnected at 14:45:00 hrs
  WARNING: Node 10 disconnected at 14:45:00 hrs
  WARNING: Node 11 disconnected at 14:45:00 hrs
  WARNING: Node 12 disconnected at 14:45:00 hrs
  WARNING: Node 14 disconnected at 14:45:00 hrs
  WARNING: Node 15 disconnected at 14:45:00 hrs
  WARNING: Node 18 disconnected at 14:45:00 hrs
  WARNING: 36 additional nodes disconnected at 14:45:00 hrs
  WARNING: System disconnected because of Link 1
   
  WARNING: Negative pressures at 15:00:00 hrs.
  WARNING: System unbalanced at 15:00:00 hrs.
  WARNING: Node 5 disconnected at 15:00:00 hrs
  WARNING: Node 6 disconnected at 15:00:00 hrs
  WARNING: Node 7 disconnected at 15:00:00 hrs
  WARNING: Node 8 disconnected at 15:00:00 hrs
  WARNING: Node 10 disconnected at 15:00:00 hrs
  WARNING: Node 11 disconnected at 15:00:00 hrs
  WARNING: Node 12 disconnected at 15:00:00 hrs
  WARNING: Node 14 disconnected at 15:00:00 hrs
  WARNING: Node 15 disconnected at 15:00:00 hrs
  WARNING: Node 18 disconnected at 15:00:00 hrs
  WARNING: 36 additional nodes disconnected at 15:00:00 hrs
  WARNING: System disconnected because of Link 1
   
  WARNING: Negative pressures at 15:15:00 hrs.
  WARNING: System unbalanced at 15:15:00 hrs.
  WARNING: Node 5 disconnected at 15:15:00 hrs
  WARNING: Node 6 disconnected at 15:15:00 hrs
  WARNING: Node 7 disconnected at 15:15:00 hrs
  WARNING: Node 8 disconnected at 15:15:00 hrs
  WARNING: Node 10 disconnected at 15:15:00 hrs
  WARNING: Node 11 disconnected at 15:15:00 hrs
  WARNING: Node 12 disconnected at 15:15:00 hrs
  WARNING: Node 14 disconnected at 15:15:00 hrs
  WARNING: Node 15 disconnected at 15:15:00 hrs
  WARNING: Node 18 disconnected at 15:15:00 hrs
  WARNING: 36 additional nodes disconnected at 15:15:00 hrs
  WARNING: System disconnected because of Link 1
   
  WARNING: Negative pressures at 15:30:00 hrs.
  WARNING: System unbalanced at 15:30:00 hrs.
  WARNING: Node 5 disconnected at 15:30:00 hrs
  WARNING: Node 6 disconnected at 15:30:00 hrs
  WARNING: Node 7 disconnected at 15:30:00 hrs
  WARNING: Node 8 disconnected at 15:30:00 hrs
  WARNING: Node 10 disconnected at 15:30:00 hrs
  WARNING: Node 11 disconnected at 15:30:00 hrs
  WARNING: Node 12 disconnected at 15:30:00 hrs
  WARNING: Node 14 disconnected at 15:30:00 hrs
  WARNING: Node 15 disconnected at 15:30:00 hrs
  WARNING: Node 18 disconnected at 15:30:00 hrs
  WARNING: 36 additional nodes disconnected at 15:30:00 hrs
  WARNING: System disconnected because of Link 1
   
  WARNING: Negative pressures at 15:45:00 hrs.
  WARNING: System unbalanced at 15:45:00 hrs.
  WARNING: Node 5 disconnected at 15:45:00 hrs
  WARNING: Node 6 disconnected at 15:45:00 hrs
  WARNING: Node 7 disconnected at 15:45:00 hrs
  WARNING: Node 8 disconnected at 15:45:00 hrs
  WARNING: Node 10 disconnected at 15:45:00 hrs
  WARNING: Node 11 disconnected at 15:45:00 hrs
  WARNING: Node 12 disconnected at 15:45:00 hrs
  WARNING: Node 14 disconnected at 15:45:00 hrs
  WARNING: Node 15 disconnected at 15:45:00 hrs
  WARNING: Node 18 disconnected at 15:45:00 hrs
  WARNING: 36 additional nodes disconnected at 15:45:00 hrs
  WARNING: System disconnected because of Link 1
   
  WARNING: Negative pressures at 16:00:00 hrs.
  WARNING: System unbalanced at 16:00:00 hrs.
  WARNING: Node 5 disconnected at 16:00:00 hrs
  WARNING: Node 6 disconnected at 16:00:00 hrs
  WARNING: Node 7 disconnected at 16:00:00 hrs
  WARNING: Node 8 disconnected at 16:00:00 hrs
  WARNING: Node 10 disconnected at 16:00:00 hrs
  WARNING: Node 11 disconnected at 16:00:00 hrs
  WARNING: Node 12 disconnected at 16:00:00 hrs
  WARNING: Node 14 disconnected at 16:00:00 hrs
  WARNING: Node 15 disconnected at 16:00:00 hrs
  WARNING: Node 18 disconnected at 16:00:00 hrs
  WARNING: 36 additional nodes disconnected at 16:00:00 hrs
  WARNING: System disconnected because of Link 1
   
  WARNING: Negative pressures at 16:15:00 hrs.
  WARNING: System unbalanced at 16:15:00 hrs.
  WARNING: Node 5 disconnected at 16:15:00 hrs
  WARNING: Node 6 disconnected at 16:15:00 hrs
  WARNING: Node 7 disconnected at 16:15:00 hrs
  WARNING: Node 8 disconnected at 16:15:00 hrs
  WARNING: Node 10 disconnected at 16:15:00 hrs
  WARNING: Node 11 disconnected at 16:15:00 hrs
  WARNING: Node 12 disconnected at 16:15:00 hrs
  WARNING: Node 14 disconnected at 16:15:00 hrs
  WARNING: Node 15 disconnected at 16:15:00 hrs
  WARNING: Node 18 disconnected at 16:15:00 hrs
  WARNING: 36 additional nodes disconnected at 16:15:00 hrs
  WARNING: System disconnected because of Link 1
   
  WARNING: Negative pressures at 16:30:00 hrs.
  WARNING: System unbalanced at 16:30:00 hrs.
  WARNING: Node 5 disconnected at 16:30:00 hrs
  WARNING: Node 6 disconnected at 16:30:00 hrs
  WARNING: Node 7 disconnected at 16:30:00 hrs
  WARNING: Node 8 disconnected at 16:30:00 hrs
  WARNING: Node 10 disconnected at 16:30:00 hrs
  WARNING: Node 11 disconnected at 16:30:00 hrs
  WARNING: Node 12 disconnected at 16:30:00 hrs
  WARNING: Node 14 disconnected at 16:30:00 hrs
  WARNING: Node 15 disconnected at 16:30:00 hrs
  WARNING: Node 18 disconnected at 16:30:00 hrs
  WARNING: 36 additional nodes disconnected at 16:30:00 hrs
  WARNING: System disconnected because of Link 1
   
  WARNING: Negative pressures at 16:45:00 hrs.
  WARNING: System unbalanced at 16:45:00 hrs.
  WARNING: Node 5 disconnected at 16:45:00 hrs
  WARNING: Node 6 disconnected at 16:45:00 hrs
  WARNING: Node 7 disconnected at 16:45:00 hrs
  WARNING: Node 8 disconnected at 16:45:00 hrs
  WARNING: Node 10 disconnected at 16:45:00 hrs
  WARNING: Node 11 disconnected at 16:45:00 hrs
  WARNING: Node 12 disconnected at 16:45:00 hrs
  WARNING: Node 14 disconnected at 16:45:00 hrs
  WARNING: Node 15 disconnected at 16:45:00 hrs
  WARNING: Node 18 disconnected at 16:45:00 hrs
  WARNING: 36 additional nodes disconnected at 16:45:00 hrs
  WARNING: System disconnected because of Link 1
   
  WARNING: Negative pressures at 17:00:00 hrs.
  WARNING: System unbalanced at 17:00:00 hrs.
  WARNING: Node 5 disconnected at 17:00:00 hrs
  WARNING: Node 6 disconnected at 17:00:00 hrs
  WARNING: Node 7 disconnected at 17:00:00 hrs
  WARNING: Node 8 disconnected at 17:00:00 hrs
  WARNING: Node 10 disconnected at 17:00:00 hrs
  WARNING: Node 11 disconnected at 17:00:00 hrs
  WARNING: Node 12 disconnected at 17:00:00 hrs
  WARNING: Node 14 disconnected at 17:00:00 hrs
  WARNING: Node 15 disconnected at 17:00:00 hrs
  WARNING: Node 18 disconnected at 17:00:00 hrs
  WARNING: 36 additional nodes disconnected at 17:00:00 hrs
  WARNING: System disconnected because of Link 1
   
  WARNING: Negative pressures at 17:15:00 hrs.
  WARNING: System unbalanced at 17:15:00 hrs.
  WARNING: Node 5 disconnected at 17:15:00 hrs
  WARNING: Node 6 disconnected at 17:15:00 hrs
  WARNING: Node 7 disconnected at 17:15:00 hrs
  WARNING: Node 8 disconnected at 17:15:00 hrs
  WARNING: Node 10 disconnected at 17:15:00 hrs
  WARNING: Node 11 disconnected at 17:15:00 hrs
  WARNING: Node 12 disconnected at 17:15:00 hrs
  WARNING: Node 14 disconnected at 17:15:00 hrs
  WARNING: Node 15 disconnected at 17:15:00 hrs
  WARNING: Node 18 disconnected at 17:15:00 hrs
  WARNING: 36 additional nodes disconnected at 17:15:00 hrs
  WARNING: System disconnected because of Link 1
   
  WARNING: Negative pressures at 17:30:00 hrs.
  WARNING: System unbalanced at 17:30:00 hrs.
  WARNING: Node 5 disconnected at 17:30:00 hrs
  WARNING: Node 6 disconnected at 17:30:00 hrs
  WARNING: Node 7 disconnected at 17:30:00 hrs
  WARNING: Node 8 disconnected at 17:30:00 hrs
  WARNING: Node 10 disconnected at 17:30:00 hrs
  WARNING: Node 11 disconnected at 17:30:00 hrs
  WARNING: Node 12 disconnected at 17:30:00 hrs
  WARNING: Node 14 disconnected at 17:30:00 hrs
  WARNING: Node 15 disconnected at 17:30:00 hrs
  WARNING: Node 18 disconnected at 17:30:00 hrs
  WARNING: 36 additional nodes disconnected at 17:30:00 hrs
  WARNING: System disconnected because of Link 1
   
  WARNING: Negative pressures at 17:45:00 hrs.
  WARNING: System unbalanced at 17:45:00 hrs.
  WARNING: Node 5 disconnected at 17:45:00 hrs
  WARNING: Node 6 disconnected at 17:45:00 hrs
  WARNING: Node 7 disconnected at 17:45:00 hrs
  WARNING: Node 8 disconnected at 17:45:00 hrs
  WARNING: Node 10 disconnected at 17:45:00 hrs
  WARNING: Node 11 disconnected at 17:45:00 hrs
  WARNING: Node 12 disconnected at 17:45:00 hrs
  WARNING: Node 14 disconnected at 17:45:00 hrs
  WARNING: Node 15 disconnected at 17:45:00 hrs
  WARNING: Node 18 disconnected at 17:45:00 hrs
  WARNING: 36 additional nodes disconnected at 17:45:00 hrs
  WARNING: System disconnected because of Link 1
   
  WARNING: Negative pressures at 18:00:00 hrs.
  WARNING: System unbalanced at 18:00:00 hrs.
  WARNING: Node 5 disconnected at 18:00:00 hrs
  WARNING: Node 6 disconnected at 18:00:00 hrs
  WARNING: Node 7 disconnected at 18:00:00 hrs
  WARNING: Node 8 disconnected at 18:00:00 hrs
  WARNING: Node 10 disconnected at 18:00:00 hrs
  WARNING: Node 11 disconnected at 18:00:00 hrs
  WARNING: Node 12 disconnected at 18:00:00 hrs
  WARNING: Node 14 disconnected at 18:00:00 hrs
  WARNING: Node 15 disconnected at 18:00:00 hrs
  WARNING: Node 18 disconnected at 18:00:00 hrs
  WARNING: 36 additional nodes disconnected at 18:00:00 hrs
  WARNING: System disconnected because of Link 1
   
  WARNING: Negative pressures at 18:15:00 hrs.
  WARNING: System unbalanced at 18:15:00 hrs.
  WARNING: Node 5 disconnected at 18:15:00 hrs
  WARNING: Node 6 disconnected at 18:15:00 hrs
  WARNING: Node 7 disconnected at 18:15:00 hrs
  WARNING: Node 8 disconnected at 18:15:00 hrs
  WARNING: Node 10 disconnected at 18:15:00 hrs
  WARNING: Node 11 disconnected at 18:15:00 hrs
  WARNING: Node 12 disconnected at 18:15:00 hrs
  WARNING: Node 14 disconnected at 18:15:00 hrs
  WARNING: Node 15 disconnected at 18:15:00 hrs
  WARNING: Node 18 disconnected at 18:15:00 hrs
  WARNING: 36 additional nodes disconnected at 18:15:00 hrs
  WARNING: System disconnected because of Link 1
   
  WARNING: Negative pressures at 18:30:00 hrs.
  WARNING: System unbalanced at 18:30:00 hrs.
  WARNING: Node 5 disconnected at 18:30:00 hrs
  WARNING: Node 6 disconnected at 18:30:00 hrs
  WARNING: Node 7 disconnected at 18:30:00 hrs
  WARNING: Node 8 disconnected at 18:30:00 hrs
  WARNING: Node 10 disconnected at 18:30:00 hrs
  WARNING: Node 11 disconnected at 18:30:00 hrs
  WARNING: Node 12 disconnected at 18:30:00 hrs
  WARNING: Node 14 disconnected at 18:30:00 hrs
  WARNING: Node 15 disconnected at 18:30:00 hrs
  WARNING: Node 18 disconnected at 18:30:00 hrs
  WARNING: 36 additional nodes disconnected at 18:30:00 hrs
  WARNING: System disconnected because of Link 1
   
  WARNING: Negative pressures at 18:45:00 hrs.
  WARNING: System unbalanced at 18:45:00 hrs.
  WARNING: Node 5 disconnected at 18:45:00 hrs
  WARNING: Node 6 disconnected at 18:45:00 hrs
  WARNING: Node 7 disconnected at 18:45:00 hrs
  WARNING: Node 8 disconnected at 18:45:00 hrs
  WARNING: Node 10 disconnected at 18:45:00 hrs
  WARNING: Node 11 disconnected at 18:45:00 hrs
  WARNING: Node 12 disconnected at 18:45:00 hrs
  WARNING: Node 14 disconnected at 18:45:00 hrs
  WARNING: Node 15 disconnected at 18:45:00 hrs
  WARNING: Node 18 disconnected at 18:45:00 hrs
  WARNING: 36 additional nodes disconnected at 18:45:00 hrs
  WARNING: System disconnected because of Link 1
   
  WARNING: Negative pressures at 19:00:00 hrs.
  WARNING: System unbalanced at 19:00:00 hrs.
  WARNING: Node 5 disconnected at 19:00:00 hrs
  WARNING: Node 6 disconnected at 19:00:00 hrs
  WARNING: Node 7 disconnected at 19:00:00 hrs
  WARNING: Node 8 disconnected at 19:00:00 hrs
  WARNING: Node 10 disconnected at 19:00:00 hrs
  WARNING: Node 11 disconnected at 19:00:00 hrs
  WARNING: Node 12 disconnected at 19:00:00 hrs
  WARNING: Node 14 disconnected at 19:00:00 hrs
  WARNING: Node 15 disconnected at 19:00:00 hrs
  WARNING: Node 18 disconnected at 19:00:00 hrs
  WARNING: 36 additional nodes disconnected at 19:00:00 hrs
  WARNING: System disconnected because of Link 1
   
  WARNING: Negative pressures at 19:15:00 hrs.
  WARNING: System unbalanced at 19:15:00 hrs.
  WARNING: Node 5 disconnected at 19:15:00 hrs
  WARNING: Node 6 disconnected at 19:15:00 hrs
  WARNING: Node 7 disconnected at 19:15:00 hrs
  WARNING: Node 8 disconnected at 19:15:00 hrs
  WARNING: Node 10 disconnected at 19:15:00 hrs
  WARNING: Node 11 disconnected at 19:15:00 hrs
  WARNING: Node 12 disconnected at 19:15:00 hrs
  WARNING: Node 14 disconnected at 19:15:00 hrs
  WARNING: Node 15 disconnected at 19:15:00 hrs
  WARNING: Node 18 disconnected at 19:15:00 hrs
  WARNING: 36 additional nodes disconnected at 19:15:00 hrs
  WARNING: System disconnected because of Link 1
   
  WARNING: Negative pressures at 19:30:00 hrs.
  WARNING: System unbalanced at 19:30:00 hrs.
  WARNING: Node 5 disconnected at 19:30:00 hrs
  WARNING: Node 6 disconnected at 19:30:00 hrs
  WARNING: Node 7 disconnected at 19:30:00 hrs
  WARNING: Node 8 disconnected at 19:30:00 hrs
  WARNING: Node 10 disconnected at 19:30:00 hrs
  WARNING: Node 11 disconnected at 19:30:00 hrs
  WARNING: Node 12 disconnected at 19:30:00 hrs
  WARNING: Node 14 disconnected at 19:30:00 hrs
  WARNING: Node 15 disconnected at 19:30:00 hrs
  WARNING: Node 18 disconnected at 19:30:00 hrs
  WARNING: 36 additional nodes disconnected at 19:30:00 hrs
  WARNING: System disconnected because of Link 1
   
  WARNING: Negative pressures at 19:45:00 hrs.
  WARNING: System unbalanced at 19:45:00 hrs.
  WARNING: Node 5 disconnected at 19:45:00 hrs
  WARNING: Node 6 disconnected at 19:45:00 hrs
  WARNING: Node 7 disconnected at 19:45:00 hrs
  WARNING: Node 8 disconnected at 19:45:00 hrs
  WARNING: Node 10 disconnected at 19:45:00 hrs
  WARNING: Node 11 disconnected at 19:45:00 hrs
  WARNING: Node 12 disconnected at 19:45:00 hrs
  WARNING: Node 14 disconnected at 19:45:00 hrs
  WARNING: Node 15 disconnected at 19:45:00 hrs
  WARNING: Node 18 disconnected at 19:45:00 hrs
  WARNING: 36 additional nodes disconnected at 19:45:00 hrs
  WARNING: System disconnected because of Link 1
   
  WARNING: Negative pressures at 20:00:00 hrs.
  WARNING: System unbalanced at 20:00:00 hrs.
  WARNING: Node 5 disconnected at 20:00:00 hrs
  WARNING: Node 6 disconnected at 20:00:00 hrs
  WARNING: Node 7 disconnected at 20:00:00 hrs
  WARNING: Node 8 disconnected at 20:00:00 hrs
  WARNING: Node 10 disconnected at 20:00:00 hrs
  WARNING: Node 11 disconnected at 20:00:00 hrs
  WARNING: Node 12 disconnected at 20:00:00 hrs
  WARNING: Node 14 disconnected at 20:00:00 hrs
  WARNING: Node 15 disconnected at 20:00:00 hrs
  WARNING: Node 18 disconnected at 20:00:00 hrs
  WARNING: 36 additional nodes disconnected at 20:00:00 hrs
  WARNING: System disconnected because of Link 1
   
  WARNING: Negative pressures at 20:15:00 hrs.
  WARNING: System unbalanced at 20:15:00 hrs.
  WARNING: Node 5 disconnected at 20:15:00 hrs
  WARNING: Node 6 disconnected at 20:15:00 hrs
  WARNING: Node 7 disconnected at 20:15:00 hrs
  WARNING: Node 8 disconnected at 20:15:00 hrs
  WARNING: Node 10 disconnected at 20:15:00 hrs
  WARNING: Node 11 disconnected at 20:15:00 hrs
  WARNING: Node 12 disconnected at 20:15:00 hrs
  WARNING: Node 14 disconnected at 20:15:00 hrs
  WARNING: Node 15 disconnected at 20:15:00 hrs
  WARNING: Node 18 disconnected at 20:15:00 hrs
  WARNING: 36 additional nodes disconnected at 20:15:00 hrs
  WARNING: System disconnected because of Link 1
   
  WARNING: Negative pressures at 20:30:00 hrs.
  WARNING: System unbalanced at 20:30:00 hrs.
  WARNING: Node 5 disconnected at 20:30:00 hrs
  WARNING: Node 6 disconnected at 20:30:00 hrs
  WARNING: Node 7 disconnected at 20:30:00 hrs
  WARNING: Node 8 disconnected at 20:30:00 hrs
  WARNING: Node 10 disconnected at 20:30:00 hrs
  WARNING: Node 11 disconnected at 20:30:00 hrs
  WARNING: Node 12 disconnected at 20:30:00 hrs
  WARNING: Node 14 disconnected at 20:30:00 hrs
  WARNING: Node 15 disconnected at 20:30:00 hrs
  WARNING: Node 18 disconnected at 20:30:00 hrs
  WARNING: 36 additional nodes disconnected at 20:30:00 hrs
  WARNING: System disconnected because of Link 1
   
  WARNING: Negative pressures at 20:45:00 hrs.
  WARNING: System unbalanced at 20:45:00 hrs.
  WARNING: Node 5 disconnected at 20:45:00 hrs
  WARNING: Node 6 disconnected at 20:45:00 hrs
  WARNING: Node 7 disconnected at 20:45:00 hrs
  WARNING: Node 8 disconnected at 20:45:00 hrs
  WARNING: Node 10 disconnected at 20:45:00 hrs
  WARNING: Node 11 disconnected at 20:45:00 hrs
  WARNING: Node 12 disconnected at 20:45:00 hrs
  WARNING: Node 14 disconnected at 20:45:00 hrs
  WARNING: Node 15 disconnected at 20:45:00 hrs
  WARNING: Node 18 disconnected at 20:45:00 hrs
  WARNING: 36 additional nodes disconnected at 20:45:00 hrs
  WARNING: System disconnected because of Link 1
   
  WARNING: Negative pressures at 21:00:00 hrs.
  WARNING: System unbalanced at 21:00:00 hrs.
  WARNING: Node 5 disconnected at 21:00:00 hrs
  WARNING: Node 6 disconnected at 21:00:00 hrs
  WARNING: Node 7 disconnected at 21:00:00 hrs
  WARNING: Node 8 disconnected at 21:00:00 hrs
  WARNING: Node 10 disconnected at 21:00:00 hrs
  WARNING: Node 11 disconnected at 21:00:00 hrs
  WARNING: Node 12 disconnected at 21:00:00 hrs
  WARNING: Node 14 disconnected at 21:00:00 hrs
  WARNING: Node 15 disconnected at 21:00:00 hrs
  WARNING: Node 18 disconnected at 21:00:00 hrs
  WARNING: 36 additional nodes disconnected at 21:00:00 hrs
  WARNING: System disconnected because of Link 1
   
  WARNING: Negative pressures at 21:15:00 hrs.
  WARNING: System unbalanced at 21:15:00 hrs.
  WARNING: Node 5 disconnected at 21:15:00 hrs
  WARNING: Node 6 disconnected at 21:15:00 hrs
  WARNING: Node 7 disconnected at 21:15:00 hrs
  WARNING: Node 8 disconnected at 21:15:00 hrs
  WARNING: Node 10 disconnected at 21:15:00 hrs
  WARNING: Node 11 disconnected at 21:15:00 hrs
  WARNING: Node 12 disconnected at 21:15:00 hrs
  WARNING: Node 14 disconnected at 21:15:00 hrs
  WARNING: Node 15 disconnected at 21:15:00 hrs
  WARNING: Node 18 disconnected at 21:15:00 hrs
  WARNING: 36 additional nodes disconnected at 21:15:00 hrs
  WARNING: System disconnected because of Link 1
   
  WARNING: Negative pressures at 21:30:00 hrs.
  WARNING: System unbalanced at 21:30:00 hrs.
  WARNING: Node 5 disconnected at 21:30:00 hrs
  WARNING: Node 6 disconnected at 21:30:00 hrs
  WARNING: Node 7 disconnected at 21:30:00 hrs
  WARNING: Node 8 disconnected at 21:30:00 hrs
  WARNING: Node 10 disconnected at 21:30:00 hrs
  WARNING: Node 11 disconnected at 21:30:00 hrs
  WARNING: Node 12 disconnected at 21:30:00 hrs
  WARNING: Node 14 disconnected at 21:30:00 hrs
  WARNING: Node 15 disconnected at 21:30:00 hrs
  WARNING: Node 18 disconnected at 21:30:00 hrs
  WARNING: 36 additional nodes disconnected at 21:30:00 hrs
  WARNING: System disconnected because of Link 1
   
  WARNING: Negative pressures at 21:45:00 hrs.
  WARNING: System unbalanced at 21:45:00 hrs.
  WARNING: Node 5 disconnected at 21:45:00 hrs
  WARNING: Node 6 disconnected at 21:45:00 hrs
  WARNING: Node 7 disconnected at 21:45:00 hrs
  WARNING: Node 8 disconnected at 21:45:00 hrs
  WARNING: Node 10 disconnected at 21:45:00 hrs
  WARNING: Node 11 disconnected at 21:45:00 hrs
  WARNING: Node 12 disconnected at 21:45:00 hrs
  WARNING: Node 14 disconnected at 21:45:00 hrs
  WARNING: Node 15 disconnected at 21:45:00 hrs
  WARNING: Node 18 disconnected at 21:45:00 hrs
  WARNING: 36 additional nodes disconnected at 21:45:00 hrs
  WARNING: System disconnected because of Link 1
   
  WARNING: Negative pressures at 22:00:00 hrs.
  WARNING: System unbalanced at 22:00:00 hrs.
  WARNING: Node 5 disconnected at 22:00:00 hrs
  WARNING: Node 6 disconnected at 22:00:00 hrs
  WARNING: Node 7 disconnected at 22:00:00 hrs
  WARNING: Node 8 disconnected at 22:00:00 hrs
  WARNING: Node 10 disconnected at 22:00:00 hrs
  WARNING: Node 11 disconnected at 22:00:00 hrs
  WARNING: Node 12 disconnected at 22:00:00 hrs
  WARNING: Node 14 disconnected at 22:00:00 hrs
  WARNING: Node 15 disconnected at 22:00:00 hrs
  WARNING: Node 18 disconnected at 22:00:00 hrs
  WARNING: 36 additional nodes disconnected at 22:00:00 hrs
  WARNING: System disconnected because of Link 1
   
  WARNING: Negative pressures at 22:15:00 hrs.
  WARNING: System unbalanced at 22:15:00 hrs.
  WARNING: Node 5 disconnected at 22:15:00 hrs
  WARNING: Node 6 disconnected at 22:15:00 hrs
  WARNING: Node 7 disconnected at 22:15:00 hrs
  WARNING: Node 8 disconnected at 22:15:00 hrs
  WARNING: Node 10 disconnected at 22:15:00 hrs
  WARNING: Node 11 disconnected at 22:15:00 hrs
  WARNING: Node 12 disconnected at 22:15:00 hrs
  WARNING: Node 14 disconnected at 22:15:00 hrs
  WARNING: Node 15 disconnected at 22:15:00 hrs
  WARNING: Node 18 disconnected at 22:15:00 hrs
  WARNING: 36 additional nodes disconnected at 22:15:00 hrs
  WARNING: System disconnected because of Link 1
   
  WARNING: Negative pressures at 22:30:00 hrs.
  WARNING: System unbalanced at 22:30:00 hrs.
  WARNING: Node 5 disconnected at 22:30:00 hrs
  WARNING: Node 6 disconnected at 22:30:00 hrs
  WARNING: Node 7 disconnected at 22:30:00 hrs
  WARNING: Node 8 disconnected at 22:30:00 hrs
  WARNING: Node 10 disconnected at 22:30:00 hrs
  WARNING: Node 11 disconnected at 22:30:00 hrs
  WARNING: Node 12 disconnected at 22:30:00 hrs
  WARNING: Node 14 disconnected at 22:30:00 hrs
  WARNING: Node 15 disconnected at 22:30:00 hrs
  WARNING: Node 18 disconnected at 22:30:00 hrs
  WARNING: 36 additional nodes disconnected at 22:30:00 hrs
  WARNING: System disconnected because of Link 1
   
  WARNING: Negative pressures at 22:45:00 hrs.
  WARNING: System unbalanced at 22:45:00 hrs.
  WARNING: Node 5 disconnected at 22:45:00 hrs
  WARNING: Node 6 disconnected at 22:45:00 hrs
  WARNING: Node 7 disconnected at 22:45:00 hrs
  WARNING: Node 8 disconnected at 22:45:00 hrs
  WARNING: Node 10 disconnected at 22:45:00 hrs
  WARNING: Node 11 disconnected at 22:45:00 hrs
  WARNING: Node 12 disconnected at 22:45:00 hrs
  WARNING: Node 14 disconnected at 22:45:00 hrs
  WARNING: Node 15 disconnected at 22:45:00 hrs
  WARNING: Node 18 disconnected at 22:45:00 hrs
  WARNING: 36 additional nodes disconnected at 22:45:00 hrs
  WARNING: System disconnected because of Link 1
   
  WARNING: Negative pressures at 23:00:00 hrs.
  WARNING: System unbalanced at 23:00:00 hrs.
  WARNING: Node 5 disconnected at 23:00:00 hrs
  WARNING: Node 6 disconnected at 23:00:00 hrs
  WARNING: Node 7 disconnected at 23:00:00 hrs
  WARNING: Node 8 disconnected at 23:00:00 hrs
  WARNING: Node 10 disconnected at 23:00:00 hrs
  WARNING: Node 11 disconnected at 23:00:00 hrs
  WARNING: Node 12 disconnected at 23:00:00 hrs
  WARNING: Node 14 disconnected at 23:00:00 hrs
  WARNING: Node 15 disconnected at 23:00:00 hrs
  WARNING: Node 18 disconnected at 23:00:00 hrs
  WARNING: 36 additional nodes disconnected at 23:00:00 hrs
  WARNING: System disconnected because of Link 1
   
  WARNING: Negative pressures at 23:15:00 hrs.
  WARNING: System unbalanced at 23:15:00 hrs.
  WARNING: Node 5 disconnected at 23:15:00 hrs
  WARNING: Node 6 disconnected at 23:15:00 hrs
  WARNING: Node 7 disconnected at 23:15:00 hrs
  WARNING: Node 8 disconnected at 23:15:00 hrs
  WARNING: Node 10 disconnected at 23:15:00 hrs
  WARNING: Node 11 disconnected at 23:15:00 hrs
  WARNING: Node 12 disconnected at 23:15:00 hrs
  WARNING: Node 14 disconnected at 23:15:00 hrs
  WARNING: Node 15 disconnected at 23:15:00 hrs
  WARNING: Node 18 disconnected at 23:15:00 hrs
  WARNING: 36 additional nodes disconnected at 23:15:00 hrs
  WARNING: System disconnected because of Link 1
   
  WARNING: Negative pressures at 23:30:00 hrs.
  WARNING: System unbalanced at 23:30:00 hrs.
  WARNING: Node 5 disconnected at 23:30:00 hrs
  WARNING: Node 6 disconnected at 23:30:00 hrs
  WARNING: Node 7 disconnected at 23:30:00 hrs
  WARNING: Node 8 disconnected at 23:30:00 hrs
  WARNING: Node 10 disconnected at 23:30:00 hrs
  WARNING: Node 11 disconnected at 23:30:00 hrs
  WARNING: Node 12 disconnected at 23:30:00 hrs
  WARNING: Node 14 disconnected at 23:30:00 hrs
  WARNING: Node 15 disconnected at 23:30:00 hrs
  WARNING: Node 18 disconnected at 23:30:00 hrs
  WARNING: 36 additional nodes disconnected at 23:30:00 hrs
  WARNING: System disconnected because of Link 1
   
  WARNING: Negative pressures at 23:45:00 hrs.
  WARNING: System unbalanced at 23:45:00 hrs.
  WARNING: Node 5 disconnected at 23:45:00 hrs
  WARNING: Node 6 disconnected at 23:45:00 hrs
  WARNING: Node 7 disconnected at 23:45:00 hrs
  WARNING: Node 8 disconnected at 23:45:00 hrs
  WARNING: Node 10 disconnected at 23:45:00 hrs
  WARNING: Node 11 disconnected at 23:45:00 hrs
  WARNING: Node 12 disconnected at 23:45:00 hrs
  WARNING: Node 14 disconnected at 23:45:00 hrs
  WARNING: Node 15 disconnected at 23:45:00 hrs
  WARNING: Node 18 disconnected at 23:45:00 hrs
  WARNING: 36 additional nodes disconnected at 23:45:00 hrs
  WARNING: System disconnected because of Link 1
   
  WARNING: Negative pressures at 24:00:00 hrs.
  WARNING: System unbalanced at 24:00:00 hrs.
  WARNING: Node 5 disconnected at 24:00:00 hrs
  WARNING: Node 6 disconnected at 24:00:00 hrs
  WARNING: Node 7 disconnected at 24:00:00 hrs
  WARNING: Node 8 disconnected at 24:00:00 hrs
  WARNING: Node 10 disconnected at 24:00:00 hrs
  WARNING: Node 11 disconnected at 24:00:00 hrs
  WARNING: Node 12 disconnected at 24:00:00 hrs
  WARNING: Node 14 disconnected at 24:00:00 hrs
  WARNING: Node 15 disconnected at 24:00:00 hrs
  WARNING: Node 18 disconnected at 24:00:00 hrs
  WARNING: 36 additional nodes disconnected at 24:00:00 hrs
  WARNING: System disconnected because of Link 1
   
  WARNING: Negative pressures at 24:15:00 hrs.
  WARNING: System unbalanced at 24:15:00 hrs.
  WARNING: Node 5 disconnected at 24:15:00 hrs
  WARNING: Node 6 disconnected at 24:15:00 hrs
  WARNING: Node 7 disconnected at 24:15:00 hrs
  WARNING: Node 8 disconnected at 24:15:00 hrs
  WARNING: Node 10 disconnected at 24:15:00 hrs
  WARNING: Node 11 disconnected at 24:15:00 hrs
  WARNING: Node 12 disconnected at 24:15:00 hrs
  WARNING: Node 14 disconnected at 24:15:00 hrs
  WARNING: Node 15 disconnected at 24:15:00 hrs
  WARNING: Node 18 disconnected at 24:15:00 hrs
  WARNING: 36 additional nodes disconnected at 24:15:00 hrs
  WARNING: System disconnected because of Link 1
   
  WARNING: Negative pressures at 24:30:00 hrs.
  WARNING: System unbalanced at 24:30:00 hrs.
  WARNING: Node 5 disconnected at 24:30:00 hrs
  WARNING: Node 6 disconnected at 24:30:00 hrs
  WARNING: Node 7 disconnected at 24:30:00 hrs
  WARNING: Node 8 disconnected at 24:30:00 hrs
  WARNING: Node 10 disconnected at 24:30:00 hrs
  WARNING: Node 11 disconnected at 24:30:00 hrs
  WARNING: Node 12 disconnected at 24:30:00 hrs
  WARNING: Node 14 disconnected at 24:30:00 hrs
  WARNING: Node 15 disconnected at 24:30:00 hrs
  WARNING: Node 18 disconnected at 24:30:00 hrs
  WARNING: 36 additional nodes disconnected at 24:30:00 hrs
  WARNING: System disconnected because of Link 1
   
  WARNING: Negative pressures at 24:45:00 hrs.
  WARNING: System unbalanced at 24:45:00 hrs.
  WARNING: Node 5 disconnected at 24:45:00 hrs
  WARNING: Node 6 disconnected at 24:45:00 hrs
  WARNING: Node 7 disconnected at 24:45:00 hrs
  WARNING: Node 8 disconnected at 24:45:00 hrs
  WARNING: Node 10 disconnected at 24:45:00 hrs
  WARNING: Node 11 disconnected at 24:45:00 hrs
  WARNING: Node 12 disconnected at 24:45:00 hrs
  WARNING: Node 14 disconnected at 24:45:00 hrs
  WARNING: Node 15 disconnected at 24:45:00 hrs
  WARNING: Node 18 disconnected at 24:45:00 hrs
  WARNING: 36 additional nodes disconnected at 24:45:00 hrs
  WARNING: System disconnected because of Link 1
   
  WARNING: Negative pressures at 25:00:00 hrs.
  WARNING: System unbalanced at 25:00:00 hrs.
  WARNING: Node 5 disconnected at 25:00:00 hrs
  WARNING: Node 6 disconnected at 25:00:00 hrs
  WARNING: Node 7 disconnected at 25:00:00 hrs
  WARNING: Node 8 disconnected at 25:00:00 hrs
  WARNING: Node 10 disconnected at 25:00:00 hrs
  WARNING: Node 11 disconnected at 25:00:00 hrs
  WARNING: Node 12 disconnected at 25:00:00 hrs
  WARNING: Node 14 disconnected at 25:00:00 hrs
  WARNING: Node 15 disconnected at 25:00:00 hrs
  WARNING: Node 18 disconnected at 25:00:00 hrs
  WARNING: 36 additional nodes disconnected at 25:00:00 hrs
  WARNING: System disconnected because of Link 1
   
  WARNING: Negative pressures at 25:15:00 hrs.
  WARNING: System unbalanced at 25:15:00 hrs.
  WARNING: Node 5 disconnected at 25:15:00 hrs
  WARNING: Node 6 disconnected at 25:15:00 hrs
  WARNING: Node 7 disconnected at 25:15:00 hrs
  WARNING: Node 8 disconnected at 25:15:00 hrs
  WARNING: Node 10 disconnected at 25:15:00 hrs
  WARNING: Node 11 disconnected at 25:15:00 hrs
  WARNING: Node 12 disconnected at 25:15:00 hrs
  WARNING: Node 14 disconnected at 25:15:00 hrs
  WARNING: Node 15 disconnected at 25:15:00 hrs
  WARNING: Node 18 disconnected at 25:15:00 hrs
  WARNING: 36 additional nodes disconnected at 25:15:00 hrs
  WARNING: System disconnected because of Link 1
   
  WARNING: Negative pressures at 25:30:00 hrs.
  WARNING: System unbalanced at 25:30:00 hrs.
  WARNING: Node 5 disconnected at 25:30:00 hrs
  WARNING: Node 6 disconnected at 25:30:00 hrs
  WARNING: Node 7 disconnected at 25:30:00 hrs
  WARNING: Node 8 disconnected at 25:30:00 hrs
  WARNING: Node 10 disconnected at 25:30:00 hrs
  WARNING: Node 11 disconnected at 25:30:00 hrs
  WARNING: Node 12 disconnected at 25:30:00 hrs
  WARNING: Node 14 disconnected at 25:30:00 hrs
  WARNING: Node 15 disconnected at 25:30:00 hrs
  WARNING: Node 18 disconnected at 25:30:00 hrs
  WARNING: 36 additional nodes disconnected at 25:30:00 hrs
  WARNING: System disconnected because of Link 1
   
  WARNING: Negative pressures at 25:45:00 hrs.
  WARNING: System unbalanced at 25:45:00 hrs.
  WARNING: Node 5 disconnected at 25:45:00 hrs
  WARNING: Node 6 disconnected at 25:45:00 hrs
  WARNING: Node 7 disconnected at 25:45:00 hrs
  WARNING: Node 8 disconnected at 25:45:00 hrs
  WARNING: Node 10 disconnected at 25:45:00 hrs
  WARNING: Node 11 disconnected at 25:45:00 hrs
  WARNING: Node 12 disconnected at 25:45:00 hrs
  WARNING: Node 14 disconnected at 25:45:00 hrs
  WARNING: Node 15 disconnected at 25:45:00 hrs
  WARNING: Node 18 disconnected at 25:45:00 hrs
  WARNING: 36 additional nodes disconnected at 25:45:00 hrs
  WARNING: System disconnected because of Link 1
   
  WARNING: Negative pressures at 26:00:00 hrs.
  WARNING: System unbalanced at 26:00:00 hrs.
  WARNING: Node 5 disconnected at 26:00:00 hrs
  WARNING: Node 6 disconnected at 26:00:00 hrs
  WARNING: Node 7 disconnected at 26:00:00 hrs
  WARNING: Node 8 disconnected at 26:00:00 hrs
  WARNING: Node 10 disconnected at 26:00:00 hrs
  WARNING: Node 11 disconnected at 26:00:00 hrs
  WARNING: Node 12 disconnected at 26:00:00 hrs
  WARNING: Node 14 disconnected at 26:00:00 hrs
  WARNING: Node 15 disconnected at 26:00:00 hrs
  WARNING: Node 18 disconnected at 26:00:00 hrs
  WARNING: 36 additional nodes disconnected at 26:00:00 hrs
  WARNING: System disconnected because of Link 1
   
  WARNING: Negative pressures at 26:15:00 hrs.
  WARNING: System unbalanced at 26:15:00 hrs.
  WARNING: Node 5 disconnected at 26:15:00 hrs
  WARNING: Node 6 disconnected at 26:15:00 hrs
  WARNING: Node 7 disconnected at 26:15:00 hrs
  WARNING: Node 8 disconnected at 26:15:00 hrs
  WARNING: Node 10 disconnected at 26:15:00 hrs
  WARNING: Node 11 disconnected at 26:15:00 hrs
  WARNING: Node 12 disconnected at 26:15:00 hrs
  WARNING: Node 14 disconnected at 26:15:00 hrs
  WARNING: Node 15 disconnected at 26:15:00 hrs
  WARNING: Node 18 disconnected at 26:15:00 hrs
  WARNING: 36 additional nodes disconnected at 26:15:00 hrs
  WARNING: System disconnected because of Link 1
   
  WARNING: Negative pressures at 26:30:00 hrs.
  WARNING: System unbalanced at 26:30:00 hrs.
  WARNING: Node 5 disconnected at 26:30:00 hrs
  WARNING: Node 6 disconnected at 26:30:00 hrs
  WARNING: Node 7 disconnected at 26:30:00 hrs
  WARNING: Node 8 disconnected at 26:30:00 hrs
  WARNING: Node 10 disconnected at 26:30:00 hrs
  WARNING: Node 11 disconnected at 26:30:00 hrs
  WARNING: Node 12 disconnected at 26:30:00 hrs
  WARNING: Node 14 disconnected at 26:30:00 hrs
  WARNING: Node 15 disconnected at 26:30:00 hrs
  WARNING: Node 18 disconnected at 26:30:00 hrs
  WARNING: 36 additional nodes disconnected at 26:30:00 hrs
  WARNING: System disconnected because of Link 1
   
  WARNING: Negative pressures at 26:45:00 hrs.
  WARNING: System unbalanced at 26:45:00 hrs.
  WARNING: Node 5 disconnected at 26:45:00 hrs
  WARNING: Node 6 disconnected at 26:45:00 hrs
  WARNING: Node 7 disconnected at 26:45:00 hrs
  WARNING: Node 8 disconnected at 26:45:00 hrs
  WARNING: Node 10 disconnected at 26:45:00 hrs
  WARNING: Node 11 disconnected at 26:45:00 hrs
  WARNING: Node 12 disconnected at 26:45:00 hrs
  WARNING: Node 14 disconnected at 26:45:00 hrs
  WARNING: Node 15 disconnected at 26:45:00 hrs
  WARNING: Node 18 disconnected at 26:45:00 hrs
  WARNING: 36 additional nodes disconnected at 26:45:00 hrs
  WARNING: System disconnected because of Link 1
   
  WARNING: Negative pressures at 27:00:00 hrs.
  WARNING: System unbalanced at 27:00:00 hrs.
  WARNING: Node 5 disconnected at 27:00:00 hrs
  WARNING: Node 6 disconnected at 27:00:00 hrs
  WARNING: Node 7 disconnected at 27:00:00 hrs
  WARNING: Node 8 disconnected at 27:00:00 hrs
  WARNING: Node 10 disconnected at 27:00:00 hrs
  WARNING: Node 11 disconnected at 27:00:00 hrs
  WARNING: Node 12 disconnected at 27:00:00 hrs
  WARNING: Node 14 disconnected at 27:00:00 hrs
  WARNING: Node 15 disconnected at 27:00:00 hrs
  WARNING: Node 18 disconnected at 27:00:00 hrs
  WARNING: 36 additional nodes disconnected at 27:00:00 hrs
  WARNING: System disconnected because of Link 1
   
  WARNING: Negative pressures at 27:15:00 hrs.
  WARNING: System unbalanced at 27:15:00 hrs.
  WARNING: Node 5 disconnected at 27:15:00 hrs
  WARNING: Node 6 disconnected at 27:15:00 hrs
  WARNING: Node 7 disconnected at 27:15:00 hrs
  WARNING: Node 8 disconnected at 27:15:00 hrs
  WARNING: Node 10 disconnected at 27:15:00 hrs
  WARNING: Node 11 disconnected at 27:15:00 hrs
  WARNING: Node 12 disconnected at 27:15:00 hrs
  WARNING: Node 14 disconnected at 27:15:00 hrs
  WARNING: Node 15 disconnected at 27:15:00 hrs
  WARNING: Node 18 disconnected at 27:15:00 hrs
  WARNING: 36 additional nodes disconnected at 27:15:00 hrs
  WARNING: System disconnected because of Link 1
   
  WARNING: Negative pressures at 27:30:00 hrs.
  WARNING: System unbalanced at 27:30:00 hrs.
  WARNING: Node 5 disconnected at 27:30:00 hrs
  WARNING: Node 6 disconnected at 27:30:00 hrs
  WARNING: Node 7 disconnected at 27:30:00 hrs
  WARNING: Node 8 disconnected at 27:30:00 hrs
  WARNING: Node 10 disconnected at 27:30:00 hrs
  WARNING: Node 11 disconnected at 27:30:00 hrs
  WARNING: Node 12 disconnected at 27:30:00 hrs
  WARNING: Node 14 disconnected at 27:30:00 hrs
  WARNING: Node 15 disconnected at 27:30:00 hrs
  WARNING: Node 18 disconnected at 27:30:00 hrs
  WARNING: 36 additional nodes disconnected at 27:30:00 hrs
  WARNING: System disconnected because of Link 1
   
  WARNING: Negative pressures at 27:45:00 hrs.
  WARNING: System unbalanced at 27:45:00 hrs.
  WARNING: Node 5 disconnected at 27:45:00 hrs
  WARNING: Node 6 disconnected at 27:45:00 hrs
  WARNING: Node 7 disconnected at 27:45:00 hrs
  WARNING: Node 8 disconnected at 27:45:00 hrs
  WARNING: Node 10 disconnected at 27:45:00 hrs
  WARNING: Node 11 disconnected at 27:45:00 hrs
  WARNING: Node 12 disconnected at 27:45:00 hrs
  WARNING: Node 14 disconnected at 27:45:00 hrs
  WARNING: Node 15 disconnected at 27:45:00 hrs
  WARNING: Node 18 disconnected at 27:45:00 hrs
  WARNING: 36 additional nodes disconnected at 27:45:00 hrs
  WARNING: System disconnected because of Link 1
   
  WARNING: Negative pressures at 28:00:00 hrs.
  WARNING: System unbalanced at 28:00:00 hrs.
  WARNING: Node 5 disconnected at 28:00:00 hrs
  WARNING: Node 6 disconnected at 28:00:00 hrs
  WARNING: Node 7 disconnected at 28:00:00 hrs
  WARNING: Node 8 disconnected at 28:00:00 hrs
  WARNING: Node 10 disconnected at 28:00:00 hrs
  WARNING: Node 11 disconnected at 28:00:00 hrs
  WARNING: Node 12 disconnected at 28:00:00 hrs
  WARNING: Node 14 disconnected at 28:00:00 hrs
  WARNING: Node 15 disconnected at 28:00:00 hrs
  WARNING: Node 18 disconnected at 28:00:00 hrs
  WARNING: 36 additional nodes disconnected at 28:00:00 hrs
  WARNING: System disconnected because of Link 1
   
  WARNING: Negative pressures at 28:15:00 hrs.
  WARNING: System unbalanced at 28:15:00 hrs.
  WARNING: Node 5 disconnected at 28:15:00 hrs
  WARNING: Node 6 disconnected at 28:15:00 hrs
  WARNING: Node 7 disconnected at 28:15:00 hrs
  WARNING: Node 8 disconnected at 28:15:00 hrs
  WARNING: Node 10 disconnected at 28:15:00 hrs
  WARNING: Node 11 disconnected at 28:15:00 hrs
  WARNING: Node 12 disconnected at 28:15:00 hrs
  WARNING: Node 14 disconnected at 28:15:00 hrs
  WARNING: Node 15 disconnected at 28:15:00 hrs
  WARNING: Node 18 disconnected at 28:15:00 hrs
  WARNING: 36 additional nodes disconnected at 28:15:00 hrs
  WARNING: System disconnected because of Link 1
   
  WARNING: Negative pressures at 28:30:00 hrs.
  WARNING: System unbalanced at 28:30:00 hrs.
  WARNING: Node 5 disconnected at 28:30:00 hrs
  WARNING: Node 6 disconnected at 28:30:00 hrs
  WARNING: Node 7 disconnected at 28:30:00 hrs
  WARNING: Node 8 disconnected at 28:30:00 hrs
  WARNING: Node 10 disconnected at 28:30:00 hrs
  WARNING: Node 11 disconnected at 28:30:00 hrs
  WARNING: Node 12 disconnected at 28:30:00 hrs
  WARNING: Node 14 disconnected at 28:30:00 hrs
  WARNING: Node 15 disconnected at 28:30:00 hrs
  WARNING: Node 18 disconnected at 28:30:00 hrs
  WARNING: 36 additional nodes disconnected at 28:30:00 hrs
  WARNING: System disconnected because of Link 1
   
  WARNING: Negative pressures at 28:45:00 hrs.
  WARNING: System unbalanced at 28:45:00 hrs.
  WARNING: Node 5 disconnected at 28:45:00 hrs
  WARNING: Node 6 disconnected at 28:45:00 hrs
  WARNING: Node 7 disconnected at 28:45:00 hrs
  WARNING: Node 8 disconnected at 28:45:00 hrs
  WARNING: Node 10 disconnected at 28:45:00 hrs
  WARNING: Node 11 disconnected at 28:45:00 hrs
  WARNING: Node 12 disconnected at 28:45:00 hrs
  WARNING: Node 14 disconnected at 28:45:00 hrs
  WARNING: Node 15 disconnected at 28:45:00 hrs
  WARNING: Node 18 disconnected at 28:45:00 hrs
  WARNING: 36 additional nodes disconnected at 28:45:00 hrs
  WARNING: System disconnected because of Link 1
   
  WARNING: Negative pressures at 29:00:00 hrs.
  WARNING: System unbalanced at 29:00:00 hrs.
  WARNING: Node 5 disconnected at 29:00:00 hrs
  WARNING: Node 6 disconnected at 29:00:00 hrs
  WARNING: Node 7 disconnected at 29:00:00 hrs
  WARNING: Node 8 disconnected at 29:00:00 hrs
  WARNING: Node 10 disconnected at 29:00:00 hrs
  WARNING: Node 11 disconnected at 29:00:00 hrs
  WARNING: Node 12 disconnected at 29:00:00 hrs
  WARNING: Node 14 disconnected at 29:00:00 hrs
  WARNING: Node 15 disconnected at 29:00:00 hrs
  WARNING: Node 18 disconnected at 29:00:00 hrs
  WARNING: 36 additional nodes disconnected at 29:00:00 hrs
  WARNING: System disconnected because of Link 1
   
  WARNING: Negative pressures at 29:15:00 hrs.
  WARNING: System unbalanced at 29:15:00 hrs.
  WARNING: Node 5 disconnected at 29:15:00 hrs
  WARNING: Node 6 disconnected at 29:15:00 hrs
  WARNING: Node 7 disconnected at 29:15:00 hrs
  WARNING: Node 8 disconnected at 29:15:00 hrs
  WARNING: Node 10 disconnected at 29:15:00 hrs
  WARNING: Node 11 disconnected at 29:15:00 hrs
  WARNING: Node 12 disconnected at 29:15:00 hrs
  WARNING: Node 14 disconnected at 29:15:00 hrs
  WARNING: Node 15 disconnected at 29:15:00 hrs
  WARNING: Node 18 disconnected at 29:15:00 hrs
  WARNING: 36 additional nodes disconnected at 29:15:00 hrs
  WARNING: System disconnected because of Link 1
   
  WARNING: Negative pressures at 29:30:00 hrs.
  WARNING: System unbalanced at 29:30:00 hrs.
  WARNING: Node 5 disconnected at 29:30:00 hrs
  WARNING: Node 6 disconnected at 29:30:00 hrs
  WARNING: Node 7 disconnected at 29:30:00 hrs
  WARNING: Node 8 disconnected at 29:30:00 hrs
  WARNING: Node 10 disconnected at 29:30:00 hrs
  WARNING: Node 11 disconnected at 29:30:00 hrs
  WARNING: Node 12 disconnected at 29:30:00 hrs
  WARNING: Node 14 disconnected at 29:30:00 hrs
  WARNING: Node 15 disconnected at 29:30:00 hrs
  WARNING: Node 18 disconnected at 29:30:00 hrs
  WARNING: 36 additional nodes disconnected at 29:30:00 hrs
  WARNING: System disconnected because of Link 1
   
  WARNING: Negative pressures at 29:45:00 hrs.
  WARNING: System unbalanced at 29:45:00 hrs.
  WARNING: Node 5 disconnected at 29:45:00 hrs
  WARNING: Node 6 disconnected at 29:45:00 hrs
  WARNING: Node 7 disconnected at 29:45:00 hrs
  WARNING: Node 8 disconnected at 29:45:00 hrs
  WARNING: Node 10 disconnected at 29:45:00 hrs
  WARNING: Node 11 disconnected at 29:45:00 hrs
  WARNING: Node 12 disconnected at 29:45:00 hrs
  WARNING: Node 14 disconnected at 29:45:00 hrs
  WARNING: Node 15 disconnected at 29:45:00 hrs
  WARNING: Node 18 disconnected at 29:45:00 hrs
  WARNING: 36 additional nodes disconnected at 29:45:00 hrs
  WARNING: System disconnected because of Link 1
   
  WARNING: Negative pressures at 30:00:00 hrs.
  WARNING: System unbalanced at 30:00:00 hrs.
  WARNING: Node 5 disconnected at 30:00:00 hrs
[...]
  WARNING: Node 8 disconnected at 713:00:00 hrs
  WARNING: Node 10 disconnected at 713:00:00 hrs
  WARNING: Node 11 disconnected at 713:00:00 hrs
  WARNING: Node 12 disconnected at 713:00:00 hrs
  WARNING: Node 14 disconnected at 713:00:00 hrs
  WARNING: Node 15 disconnected at 713:00:00 hrs
  WARNING: Node 18 disconnected at 713:00:00 hrs
  WARNING: 36 additional nodes disconnected at 713:00:00 hrs
  WARNING: System disconnected because of Link 1
   
  WARNING: Negative pressures at 713:15:00 hrs.
  WARNING: System unbalanced at 713:15:00 hrs.
  WARNING: Node 5 disconnected at 713:15:00 hrs
  WARNING: Node 6 disconnected at 713:15:00 hrs
  WARNING: Node 7 disconnected at 713:15:00 hrs
  WARNING: Node 8 disconnected at 713:15:00 hrs
  WARNING: Node 10 disconnected at 713:15:00 hrs
  WARNING: Node 11 disconnected at 713:15:00 hrs
  WARNING: Node 12 disconnected at 713:15:00 hrs
  WARNING: Node 14 disconnected at 713:15:00 hrs
  WARNING: Node 15 disconnected at 713:15:00 hrs
  WARNING: Node 18 disconnected at 713:15:00 hrs
  WARNING: 36 additional nodes disconnected at 713:15:00 hrs
  WARNING: System disconnected because of Link 1
   
  WARNING: Negative pressures at 713:30:00 hrs.
  WARNING: System unbalanced at 713:30:00 hrs.
  WARNING: Node 5 disconnected at 713:30:00 hrs
  WARNING: Node 6 disconnected at 713:30:00 hrs
  WARNING: Node 7 disconnected at 713:30:00 hrs
  WARNING: Node 8 disconnected at 713:30:00 hrs
  WARNING: Node 10 disconnected at 713:30:00 hrs
  WARNING: Node 11 disconnected at 713:30:00 hrs
  WARNING: Node 12 disconnected at 713:30:00 hrs
  WARNING: Node 14 disconnected at 713:30:00 hrs
  WARNING: Node 15 disconnected at 713:30:00 hrs
  WARNING: Node 18 disconnected at 713:30:00 hrs
  WARNING: 36 additional nodes disconnected at 713:30:00 hrs
  WARNING: System disconnected because of Link 1
   
  WARNING: Negative pressures at 713:45:00 hrs.
  WARNING: System unbalanced at 713:45:00 hrs.
  WARNING: Node 5 disconnected at 713:45:00 hrs
  WARNING: Node 6 disconnected at 713:45:00 hrs
  WARNING: Node 7 disconnected at 713:45:00 hrs
  WARNING: Node 8 disconnected at 713:45:00 hrs
  WARNING: Node 10 disconnected at 713:45:00 hrs
  WARNING: Node 11 disconnected at 713:45:00 hrs
  WARNING: Node 12 disconnected at 713:45:00 hrs
  WARNING: Node 14 disconnected at 713:45:00 hrs
  WARNING: Node 15 disconnected at 713:45:00 hrs
  WARNING: Node 18 disconnected at 713:45:00 hrs
  WARNING: 36 additional nodes disconnected at 713:45:00 hrs
  WARNING: System disconnected because of Link 1
   
  WARNING: Negative pressures at 714:00:00 hrs.
  WARNING: System unbalanced at 714:00:00 hrs.
  WARNING: Node 5 disconnected at 714:00:00 hrs
  WARNING: Node 6 disconnected at 714:00:00 hrs
  WARNING: Node 7 disconnected at 714:00:00 hrs
  WARNING: Node 8 disconnected at 714:00:00 hrs
  WARNING: Node 10 disconnected at 714:00:00 hrs
  WARNING: Node 11 disconnected at 714:00:00 hrs
  WARNING: Node 12 disconnected at 714:00:00 hrs
  WARNING: Node 14 disconnected at 714:00:00 hrs
  WARNING: Node 15 disconnected at 714:00:00 hrs
  WARNING: Node 18 disconnected at 714:00:00 hrs
  WARNING: 36 additional nodes disconnected at 714:00:00 hrs
  WARNING: System disconnected because of Link 1
   
  WARNING: Negative pressures at 714:15:00 hrs.
  WARNING: System unbalanced at 714:15:00 hrs.
  WARNING: Node 5 disconnected at 714:15:00 hrs
  WARNING: Node 6 disconnected at 714:15:00 hrs
  WARNING: Node 7 disconnected at 714:15:00 hrs
  WARNING: Node 8 disconnected at 714:15:00 hrs
  WARNING: Node 10 disconnected at 714:15:00 hrs
  WARNING: Node 11 disconnected at 714:15:00 hrs
  WARNING: Node 12 disconnected at 714:15:00 hrs
  WARNING: Node 14 disconnected at 714:15:00 hrs
  WARNING: Node 15 disconnected at 714:15:00 hrs
  WARNING: Node 18 disconnected at 714:15:00 hrs
  WARNING: 36 additional nodes disconnected at 714:15:00 hrs
  WARNING: System disconnected because of Link 1
   
  WARNING: Negative pressures at 714:30:00 hrs.
  WARNING: System unbalanced at 714:30:00 hrs.
  WARNING: Node 5 disconnected at 714:30:00 hrs
  WARNING: Node 6 disconnected at 714:30:00 hrs
  WARNING: Node 7 disconnected at 714:30:00 hrs
  WARNING: Node 8 disconnected at 714:30:00 hrs
  WARNING: Node 10 disconnected at 714:30:00 hrs
  WARNING: Node 11 disconnected at 714:30:00 hrs
  WARNING: Node 12 disconnected at 714:30:00 hrs
  WARNING: Node 14 disconnected at 714:30:00 hrs
  WARNING: Node 15 disconnected at 714:30:00 hrs
  WARNING: Node 18 disconnected at 714:30:00 hrs
  WARNING: 36 additional nodes disconnected at 714:30:00 hrs
  WARNING: System disconnected because of Link 1
   
  WARNING: Negative pressures at 714:45:00 hrs.
  WARNING: System unbalanced at 714:45:00 hrs.
  WARNING: Node 5 disconnected at 714:45:00 hrs
  WARNING: Node 6 disconnected at 714:45:00 hrs
  WARNING: Node 7 disconnected at 714:45:00 hrs
  WARNING: Node 8 disconnected at 714:45:00 hrs
  WARNING: Node 10 disconnected at 714:45:00 hrs
  WARNING: Node 11 disconnected at 714:45:00 hrs
  WARNING: Node 12 disconnected at 714:45:00 hrs
  WARNING: Node 14 disconnected at 714:45:00 hrs
  WARNING: Node 15 disconnected at 714:45:00 hrs
  WARNING: Node 18 disconnected at 714:45:00 hrs
  WARNING: 36 additional nodes disconnected at 714:45:00 hrs
  WARNING: System disconnected because of Link 1
   
  WARNING: Negative pressures at 715:00:00 hrs.
  WARNING: System unbalanced at 715:00:00 hrs.
  WARNING: Node 5 disconnected at 715:00:00 hrs
  WARNING: Node 6 disconnected at 715:00:00 hrs
  WARNING: Node 7 disconnected at 715:00:00 hrs
  WARNING: Node 8 disconnected at 715:00:00 hrs
  WARNING: Node 10 disconnected at 715:00:00 hrs
  WARNING: Node 11 disconnected at 715:00:00 hrs
  WARNING: Node 12 disconnected at 715:00:00 hrs
  WARNING: Node 14 disconnected at 715:00:00 hrs
  WARNING: Node 15 disconnected at 715:00:00 hrs
  WARNING: Node 18 disconnected at 715:00:00 hrs
  WARNING: 36 additional nodes disconnected at 715:00:00 hrs
  WARNING: System disconnected because of Link 1
   
  WARNING: Negative pressures at 715:15:00 hrs.
  WARNING: System unbalanced at 715:15:00 hrs.
  WARNING: Node 5 disconnected at 715:15:00 hrs
  WARNING: Node 6 disconnected at 715:15:00 hrs
  WARNING: Node 7 disconnected at 715:15:00 hrs
  WARNING: Node 8 disconnected at 715:15:00 hrs
  WARNING: Node 10 disconnected at 715:15:00 hrs
  WARNING: Node 11 disconnected at 715:15:00 hrs
  WARNING: Node 12 disconnected at 715:15:00 hrs
  WARNING: Node 14 disconnected at 715:15:00 hrs
  WARNING: Node 15 disconnected at 715:15:00 hrs
  WARNING: Node 18 disconnected at 715:15:00 hrs
  WARNING: 36 additional nodes disconnected at 715:15:00 hrs
  WARNING: System disconnected because of Link 1
   
  WARNING: Negative pressures at 715:30:00 hrs.
  WARNING: System unbalanced at 715:30:00 hrs.
  WARNING: Node 5 disconnected at 715:30:00 hrs
  WARNING: Node 6 disconnected at 715:30:00 hrs
  WARNING: Node 7 disconnected at 715:30:00 hrs
  WARNING: Node 8 disconnected at 715:30:00 hrs
  WARNING: Node 10 disconnected at 715:30:00 hrs
  WARNING: Node 11 disconnected at 715:30:00 hrs
  WARNING: Node 12 disconnected at 715:30:00 hrs
  WARNING: Node 14 disconnected at 715:30:00 hrs
  WARNING: Node 15 disconnected at 715:30:00 hrs
  WARNING: Node 18 disconnected at 715:30:00 hrs
  WARNING: 36 additional nodes disconnected at 715:30:00 hrs
  WARNING: System disconnected because of Link 1
   
  WARNING: Negative pressures at 715:45:00 hrs.
  WARNING: System unbalanced at 715:45:00 hrs.
  WARNING: Node 5 disconnected at 715:45:00 hrs
  WARNING: Node 6 disconnected at 715:45:00 hrs
  WARNING: Node 7 disconnected at 715:45:00 hrs
  WARNING: Node 8 disconnected at 715:45:00 hrs
  WARNING: Node 10 disconnected at 715:45:00 hrs
  WARNING: Node 11 disconnected at 715:45:00 hrs
  WARNING: Node 12 disconnected at 715:45:00 hrs
  WARNING: Node 14 disconnected at 715:45:00 hrs
  WARNING: Node 15 disconnected at 715:45:00 hrs
  WARNING: Node 18 disconnected at 715:45:00 hrs
  WARNING: 36 additional nodes disconnected at 715:45:00 hrs
  WARNING: System disconnected because of Link 1
   
  WARNING: Negative pressures at 716:00:00 hrs.
  WARNING: System unbalanced at 716:00:00 hrs.
  WARNING: Node 5 disconnected at 716:00:00 hrs
  WARNING: Node 6 disconnected at 716:00:00 hrs
  WARNING: Node 7 disconnected at 716:00:00 hrs
  WARNING: Node 8 disconnected at 716:00:00 hrs
  WARNING: Node 10 disconnected at 716:00:00 hrs
  WARNING: Node 11 disconnected at 716:00:00 hrs
  WARNING: Node 12 disconnected at 716:00:00 hrs
  WARNING: Node 14 disconnected at 716:00:00 hrs
  WARNING: Node 15 disconnected at 716:00:00 hrs
  WARNING: Node 18 disconnected at 716:00:00 hrs
  WARNING: 36 additional nodes disconnected at 716:00:00 hrs
  WARNING: System disconnected because of Link 1
   
  WARNING: Negative pressures at 716:15:00 hrs.
  WARNING: System unbalanced at 716:15:00 hrs.
  WARNING: Node 5 disconnected at 716:15:00 hrs
  WARNING: Node 6 disconnected at 716:15:00 hrs
  WARNING: Node 7 disconnected at 716:15:00 hrs
  WARNING: Node 8 disconnected at 716:15:00 hrs
  WARNING: Node 10 disconnected at 716:15:00 hrs
  WARNING: Node 11 disconnected at 716:15:00 hrs
  WARNING: Node 12 disconnected at 716:15:00 hrs
  WARNING: Node 14 disconnected at 716:15:00 hrs
  WARNING: Node 15 disconnected at 716:15:00 hrs
  WARNING: Node 18 disconnected at 716:15:00 hrs
  WARNING: 36 additional nodes disconnected at 716:15:00 hrs
  WARNING: System disconnected because of Link 1
   
  WARNING: Negative pressures at 716:30:00 hrs.
  WARNING: System unbalanced at 716:30:00 hrs.
  WARNING: Node 5 disconnected at 716:30:00 hrs
  WARNING: Node 6 disconnected at 716:30:00 hrs
  WARNING: Node 7 disconnected at 716:30:00 hrs
  WARNING: Node 8 disconnected at 716:30:00 hrs
  WARNING: Node 10 disconnected at 716:30:00 hrs
  WARNING: Node 11 disconnected at 716:30:00 hrs
  WARNING: Node 12 disconnected at 716:30:00 hrs
  WARNING: Node 14 disconnected at 716:30:00 hrs
  WARNING: Node 15 disconnected at 716:30:00 hrs
  WARNING: Node 18 disconnected at 716:30:00 hrs
  WARNING: 36 additional nodes disconnected at 716:30:00 hrs
  WARNING: System disconnected because of Link 1
   
  WARNING: Negative pressures at 716:45:00 hrs.
  WARNING: System unbalanced at 716:45:00 hrs.
  WARNING: Node 5 disconnected at 716:45:00 hrs
  WARNING: Node 6 disconnected at 716:45:00 hrs
  WARNING: Node 7 disconnected at 716:45:00 hrs
  WARNING: Node 8 disconnected at 716:45:00 hrs
  WARNING: Node 10 disconnected at 716:45:00 hrs
  WARNING: Node 11 disconnected at 716:45:00 hrs
  WARNING: Node 12 disconnected at 716:45:00 hrs
  WARNING: Node 14 disconnected at 716:45:00 hrs
  WARNING: Node 15 disconnected at 716:45:00 hrs
  WARNING: Node 18 disconnected at 716:45:00 hrs
  WARNING: 36 additional nodes disconnected at 716:45:00 hrs
  WARNING: System disconnected because of Link 1
   
  WARNING: Negative pressures at 717:00:00 hrs.
  WARNING: System unbalanced at 717:00:00 hrs.
  WARNING: Node 5 disconnected at 717:00:00 hrs
  WARNING: Node 6 disconnected at 717:00:00 hrs
  WARNING: Node 7 disconnected at 717:00:00 hrs
  WARNING: Node 8 disconnected at 717:00:00 hrs
  WARNING: Node 10 disconnected at 717:00:00 hrs
  WARNING: Node 11 disconnected at 717:00:00 hrs
  WARNING: Node 12 disconnected at 717:00:00 hrs
  WARNING: Node 14 disconnected at 717:00:00 hrs
  WARNING: Node 15 disconnected at 717:00:00 hrs
  WARNING: Node 18 disconnected at 717:00:00 hrs
  WARNING: 36 additional nodes disconnected at 717:00:00 hrs
  WARNING: System disconnected because of Link 1
   
  WARNING: Negative pressures at 717:15:00 hrs.
  WARNING: System unbalanced at 717:15:00 hrs.
  WARNING: Node 5 disconnected at 717:15:00 hrs
  WARNING: Node 6 disconnected at 717:15:00 hrs
  WARNING: Node 7 disconnected at 717:15:00 hrs
  WARNING: Node 8 disconnected at 717:15:00 hrs
  WARNING: Node 10 disconnected at 717:15:00 hrs
  WARNING: Node 11 disconnected at 717:15:00 hrs
  WARNING: Node 12 disconnected at 717:15:00 hrs
  WARNING: Node 14 disconnected at 717:15:00 hrs
  WARNING: Node 15 disconnected at 717:15:00 hrs
  WARNING: Node 18 disconnected at 717:15:00 hrs
  WARNING: 36 additional nodes disconnected at 717:15:00 hrs
  WARNING: System disconnected because of Link 1
   
  WARNING: Negative pressures at 717:30:00 hrs.
  WARNING: System unbalanced at 717:30:00 hrs.
  WARNING: Node 5 disconnected at 717:30:00 hrs
  WARNING: Node 6 disconnected at 717:30:00 hrs
  WARNING: Node 7 disconnected at 717:30:00 hrs
  WARNING: Node 8 disconnected at 717:30:00 hrs
  WARNING: Node 10 disconnected at 717:30:00 hrs
  WARNING: Node 11 disconnected at 717:30:00 hrs
  WARNING: Node 12 disconnected at 717:30:00 hrs
  WARNING: Node 14 disconnected at 717:30:00 hrs
  WARNING: Node 15 disconnected at 717:30:00 hrs
  WARNING: Node 18 disconnected at 717:30:00 hrs
  WARNING: 36 additional nodes disconnected at 717:30:00 hrs
  WARNING: System disconnected because of Link 1
   
  WARNING: Negative pressures at 717:45:00 hrs.
  WARNING: System unbalanced at 717:45:00 hrs.
  WARNING: Node 5 disconnected at 717:45:00 hrs
  WARNING: Node 6 disconnected at 717:45:00 hrs
  WARNING: Node 7 disconnected at 717:45:00 hrs
  WARNING: Node 8 disconnected at 717:45:00 hrs
  WARNING: Node 10 disconnected at 717:45:00 hrs
  WARNING: Node 11 disconnected at 717:45:00 hrs
  WARNING: Node 12 disconnected at 717:45:00 hrs
  WARNING: Node 14 disconnected at 717:45:00 hrs
  WARNING: Node 15 disconnected at 717:45:00 hrs
  WARNING: Node 18 disconnected at 717:45:00 hrs
  WARNING: 36 additional nodes disconnected at 717:45:00 hrs
  WARNING: System disconnected because of Link 1
   
  WARNING: Negative pressures at 718:00:00 hrs.
  WARNING: System unbalanced at 718:00:00 hrs.
  WARNING: Node 5 disconnected at 718:00:00 hrs
  WARNING: Node 6 disconnected at 718:00:00 hrs
  WARNING: Node 7 disconnected at 718:00:00 hrs
  WARNING: Node 8 disconnected at 718:00:00 hrs
  WARNING: Node 10 disconnected at 718:00:00 hrs
  WARNING: Node 11 disconnected at 718:00:00 hrs
  WARNING: Node 12 disconnected at 718:00:00 hrs
  WARNING: Node 14 disconnected at 718:00:00 hrs
  WARNING: Node 15 disconnected at 718:00:00 hrs
  WARNING: Node 18 disconnected at 718:00:00 hrs
  WARNING: 36 additional nodes disconnected at 718:00:00 hrs
  WARNING: System disconnected because of Link 1
   
  WARNING: Negative pressures at 718:15:00 hrs.
  WARNING: System unbalanced at 718:15:00 hrs.
  WARNING: Node 5 disconnected at 718:15:00 hrs
  WARNING: Node 6 disconnected at 718:15:00 hrs
  WARNING: Node 7 disconnected at 718:15:00 hrs
  WARNING: Node 8 disconnected at 718:15:00 hrs
  WARNING: Node 10 disconnected at 718:15:00 hrs
  WARNING: Node 11 disconnected at 718:15:00 hrs
  WARNING: Node 12 disconnected at 718:15:00 hrs
  WARNING: Node 14 disconnected at 718:15:00 hrs
  WARNING: Node 15 disconnected at 718:15:00 hrs
  WARNING: Node 18 disconnected at 718:15:00 hrs
  WARNING: 36 additional nodes disconnected at 718:15:00 hrs
  WARNING: System disconnected because of Link 1
   
  WARNING: Negative pressures at 718:30:00 hrs.
  WARNING: System unbalanced at 718:30:00 hrs.
  WARNING: Node 5 disconnected at 718:30:00 hrs
  WARNING: Node 6 disconnected at 718:30:00 hrs
  WARNING: Node 7 disconnected at 718:30:00 hrs
  WARNING: Node 8 disconnected at 718:30:00 hrs
  WARNING: Node 10 disconnected at 718:30:00 hrs
  WARNING: Node 11 disconnected at 718:30:00 hrs
  WARNING: Node 12 disconnected at 718:30:00 hrs
  WARNING: Node 14 disconnected at 718:30:00 hrs
  WARNING: Node 15 disconnected at 718:30:00 hrs
  WARNING: Node 18 disconnected at 718:30:00 hrs
  WARNING: 36 additional nodes disconnected at 718:30:00 hrs
  WARNING: System disconnected because of Link 1
   
  WARNING: Negative pressures at 718:45:00 hrs.
  WARNING: System unbalanced at 718:45:00 hrs.
  WARNING: Node 5 disconnected at 718:45:00 hrs
  WARNING: Node 6 disconnected at 718:45:00 hrs
  WARNING: Node 7 disconnected at 718:45:00 hrs
  WARNING: Node 8 disconnected at 718:45:00 hrs
  WARNING: Node 10 disconnected at 718:45:00 hrs
  WARNING: Node 11 disconnected at 718:45:00 hrs
  WARNING: Node 12 disconnected at 718:45:00 hrs
  WARNING: Node 14 disconnected at 718:45:00 hrs
  WARNING: Node 15 disconnected at 718:45:00 hrs
  WARNING: Node 18 disconnected at 718:45:00 hrs
  WARNING: 36 additional nodes disconnected at 718:45:00 hrs
  WARNING: System disconnected because of Link 1
   
  WARNING: Negative pressures at 719:00:00 hrs.
  WARNING: System unbalanced at 719:00:00 hrs.
  WARNING: Node 5 disconnected at 719:00:00 hrs
  WARNING: Node 6 disconnected at 719:00:00 hrs
  WARNING: Node 7 disconnected at 719:00:00 hrs
  WARNING: Node 8 disconnected at 719:00:00 hrs
  WARNING: Node 10 disconnected at 719:00:00 hrs
  WARNING: Node 11 disconnected at 719:00:00 hrs
  WARNING: Node 12 disconnected at 719:00:00 hrs
  WARNING: Node 14 disconnected at 719:00:00 hrs
  WARNING: Node 15 disconnected at 719:00:00 hrs
  WARNING: Node 18 disconnected at 719:00:00 hrs
  WARNING: 36 additional nodes disconnected at 719:00:00 hrs
  WARNING: System disconnected because of Link 1
   
  WARNING: Negative pressures at 719:15:00 hrs.
  WARNING: System unbalanced at 719:15:00 hrs.
  WARNING: Node 5 disconnected at 719:15:00 hrs
  WARNING: Node 6 disconnected at 719:15:00 hrs
  WARNING: Node 7 disconnected at 719:15:00 hrs
  WARNING: Node 8 disconnected at 719:15:00 hrs
  WARNING: Node 10 disconnected at 719:15:00 hrs
  WARNING: Node 11 disconnected at 719:15:00 hrs
  WARNING: Node 12 disconnected at 719:15:00 hrs
  WARNING: Node 14 disconnected at 719:15:00 hrs
  WARNING: Node 15 disconnected at 719:15:00 hrs
  WARNING: Node 18 disconnected at 719:15:00 hrs
  WARNING: 36 additional nodes disconnected at 719:15:00 hrs
  WARNING: System disconnected because of Link 1
   
  WARNING: Negative pressures at 719:30:00 hrs.
  WARNING: System unbalanced at 719:30:00 hrs.
  WARNING: Node 5 disconnected at 719:30:00 hrs
  WARNING: Node 6 disconnected at 719:30:00 hrs
  WARNING: Node 7 disconnected at 719:30:00 hrs
  WARNING: Node 8 disconnected at 719:30:00 hrs
  WARNING: Node 10 disconnected at 719:30:00 hrs
  WARNING: Node 11 disconnected at 719:30:00 hrs
  WARNING: Node 12 disconnected at 719:30:00 hrs
  WARNING: Node 14 disconnected at 719:30:00 hrs
  WARNING: Node 15 disconnected at 719:30:00 hrs
  WARNING: Node 18 disconnected at 719:30:00 hrs
  WARNING: 36 additional nodes disconnected at 719:30:00 hrs
  WARNING: System disconnected because of Link 1
   
  WARNING: Negative pressures at 719:45:00 hrs.
  WARNING: System unbalanced at 719:45:00 hrs.
  WARNING: Node 5 disconnected at 719:45:00 hrs
  WARNING: Node 6 disconnected at 719:45:00 hrs
  WARNING: Node 7 disconnected at 719:45:00 hrs
  WARNING: Node 8 disconnected at 719:45:00 hrs
  WARNING: Node 10 disconnected at 719:45:00 hrs
  WARNING: Node 11 disconnected at 719:45:00 hrs
  WARNING: Node 12 disconnected at 719:45:00 hrs
  WARNING: Node 14 disconnected at 719:45:00 hrs
  WARNING: Node 15 disconnected at 719:45:00 hrs
  WARNING: Node 18 disconnected at 719:45:00 hrs
  WARNING: 36 additional nodes disconnected at 719:45:00 hrs
  WARNING: System disconnected because of Link 1
   
  WARNING: Negative pressures at 720:00:00 hrs.
  WARNING: System unbalanced at 720:00:00 hrs.
  WARNING: Node 5 disconnected at 720:00:00 hrs
  WARNING: Node 6 disconnected at 720:00:00 hrs
  WARNING: Node 7 disconnected at 720:00:00 hrs
  WARNING: Node 8 disconnected at 720:00:00 hrs
  WARNING: Node 10 disconnected at 720:00:00 hrs
  WARNING: Node 11 disconnected at 720:00:00 hrs
  WARNING: Node 12 disconnected at 720:00:00 hrs
  WARNING: Node 14 disconnected at 720:00:00 hrs
  WARNING: Node 15 disconnected at 720:00:00 hrs
  WARNING: Node 18 disconnected at 720:00:00 hrs
  WARNING: 36 additional nodes disconnected at 720:00:00 hrs
  WARNING: System disconnected because of Link 1
   
  Analysis ended Sun Apr 13 17:33:50 2025
